* NGSPICE file created from unused_tie.ext - technology: sky130B

* Black-box entry subcircuit for sky130_ef_sc_hd__decap_12 abstract view
.subckt sky130_ef_sc_hd__decap_12 VGND VNB VPB VPWR
.ends

* Black-box entry subcircuit for sky130_fd_sc_hd__tapvpwrvgnd_1 abstract view
.subckt sky130_fd_sc_hd__tapvpwrvgnd_1 VGND VPWR
.ends

* Black-box entry subcircuit for sky130_fd_sc_hd__fill_2 abstract view
.subckt sky130_fd_sc_hd__fill_2 VGND VNB VPB VPWR
.ends

* Black-box entry subcircuit for sky130_fd_sc_hd__dlygate4sd3_1 abstract view
.subckt sky130_fd_sc_hd__dlygate4sd3_1 A VGND VNB VPB VPWR X
.ends

* Black-box entry subcircuit for sky130_fd_sc_hd__decap_3 abstract view
.subckt sky130_fd_sc_hd__decap_3 VGND VNB VPB VPWR
.ends

* Black-box entry subcircuit for sky130_fd_sc_hd__fill_1 abstract view
.subckt sky130_fd_sc_hd__fill_1 VGND VNB VPB VPWR
.ends

* Black-box entry subcircuit for sky130_fd_sc_hd__decap_4 abstract view
.subckt sky130_fd_sc_hd__decap_4 VGND VNB VPB VPWR
.ends

* Black-box entry subcircuit for sky130_fd_sc_hd__buf_12 abstract view
.subckt sky130_fd_sc_hd__buf_12 A VGND VNB VPB VPWR X
.ends

* Black-box entry subcircuit for sky130_fd_sc_hd__decap_6 abstract view
.subckt sky130_fd_sc_hd__decap_6 VGND VNB VPB VPWR
.ends

* Black-box entry subcircuit for sky130_fd_sc_hd__dfxtp_1 abstract view
.subckt sky130_fd_sc_hd__dfxtp_1 CLK D VGND VNB VPB VPWR Q
.ends

* Black-box entry subcircuit for sky130_fd_sc_hd__and2b_1 abstract view
.subckt sky130_fd_sc_hd__and2b_1 A_N B VGND VNB VPB VPWR X
.ends

* Black-box entry subcircuit for sky130_fd_sc_hd__decap_8 abstract view
.subckt sky130_fd_sc_hd__decap_8 VGND VNB VPB VPWR
.ends

* Black-box entry subcircuit for sky130_fd_sc_hd__diode_2 abstract view
.subckt sky130_fd_sc_hd__diode_2 DIODE VGND VNB VPB VPWR
.ends

* Black-box entry subcircuit for sky130_fd_sc_hd__clkbuf_16 abstract view
.subckt sky130_fd_sc_hd__clkbuf_16 A VGND VNB VPB VPWR X
.ends

* Black-box entry subcircuit for sky130_fd_sc_hd__buf_6 abstract view
.subckt sky130_fd_sc_hd__buf_6 A VGND VNB VPB VPWR X
.ends

* Black-box entry subcircuit for sky130_fd_sc_hd__buf_1 abstract view
.subckt sky130_fd_sc_hd__buf_1 A VGND VNB VPB VPWR X
.ends

* Black-box entry subcircuit for sky130_fd_sc_hd__clkbuf_4 abstract view
.subckt sky130_fd_sc_hd__clkbuf_4 A VGND VNB VPB VPWR X
.ends

* Black-box entry subcircuit for sky130_fd_sc_hd__buf_2 abstract view
.subckt sky130_fd_sc_hd__buf_2 A VGND VNB VPB VPWR X
.ends

* Black-box entry subcircuit for sky130_fd_sc_hd__buf_4 abstract view
.subckt sky130_fd_sc_hd__buf_4 A VGND VNB VPB VPWR X
.ends

* Black-box entry subcircuit for sky130_fd_sc_hd__clkbuf_1 abstract view
.subckt sky130_fd_sc_hd__clkbuf_1 A VGND VNB VPB VPWR X
.ends

* Black-box entry subcircuit for sky130_fd_sc_hd__or2_1 abstract view
.subckt sky130_fd_sc_hd__or2_1 A B VGND VNB VPB VPWR X
.ends

* Black-box entry subcircuit for sky130_fd_sc_hd__conb_1 abstract view
.subckt sky130_fd_sc_hd__conb_1 VGND VNB VPB VPWR HI LO
.ends

.subckt unused_tie irq[0] irq[1] irq[2] la_data_out[0] la_data_out[10] la_data_out[11]
+ la_data_out[12] la_data_out[13] la_data_out[14] la_data_out[15] la_data_out[16]
+ la_data_out[17] la_data_out[18] la_data_out[19] la_data_out[1] la_data_out[20] la_data_out[21]
+ la_data_out[22] la_data_out[23] la_data_out[24] la_data_out[25] la_data_out[26]
+ la_data_out[27] la_data_out[28] la_data_out[29] la_data_out[2] la_data_out[30] la_data_out[31]
+ la_data_out[32] la_data_out[33] la_data_out[34] la_data_out[35] la_data_out[36]
+ la_data_out[37] la_data_out[38] la_data_out[39] la_data_out[3] la_data_out[40] la_data_out[41]
+ la_data_out[42] la_data_out[43] la_data_out[44] la_data_out[45] la_data_out[46]
+ la_data_out[47] la_data_out[48] la_data_out[49] la_data_out[4] la_data_out[50] la_data_out[51]
+ la_data_out[52] la_data_out[53] la_data_out[54] la_data_out[55] la_data_out[56]
+ la_data_out[57] la_data_out[58] la_data_out[59] la_data_out[5] la_data_out[60] la_data_out[61]
+ la_data_out[62] la_data_out[63] la_data_out[64] la_data_out[65] la_data_out[66]
+ la_data_out[67] la_data_out[68] la_data_out[69] la_data_out[6] la_data_out[70] la_data_out[71]
+ la_data_out[72] la_data_out[73] la_data_out[74] la_data_out[75] la_data_out[76]
+ la_data_out[77] la_data_out[78] la_data_out[79] la_data_out[7] la_data_out[80] la_data_out[81]
+ la_data_out[82] la_data_out[83] la_data_out[84] la_data_out[85] la_data_out[86]
+ la_data_out[87] la_data_out[8] la_data_out[9] vccd1 vssd1 wb_clk_i wb_rst_i
XFILLER_0_27_93 vssd1 vssd1 vccd1 vccd1 sky130_ef_sc_hd__decap_12
XTAP_177 vssd1 vccd1 sky130_fd_sc_hd__tapvpwrvgnd_1
XTAP_188 vssd1 vccd1 sky130_fd_sc_hd__tapvpwrvgnd_1
XTAP_199 vssd1 vccd1 sky130_fd_sc_hd__tapvpwrvgnd_1
XFILLER_0_32_269 vssd1 vssd1 vccd1 vccd1 sky130_fd_sc_hd__fill_2
Xhold351 _256_/Q vssd1 vssd1 vccd1 vccd1 hold351/X sky130_fd_sc_hd__dlygate4sd3_1
Xhold340 _141_/B vssd1 vssd1 vccd1 vccd1 hold340/X sky130_fd_sc_hd__dlygate4sd3_1
XFILLER_0_7_81 vssd1 vssd1 vccd1 vccd1 sky130_ef_sc_hd__decap_12
XFILLER_0_55_317 vssd1 vssd1 vccd1 vccd1 sky130_fd_sc_hd__decap_3
XFILLER_0_23_225 vssd1 vssd1 vccd1 vccd1 sky130_fd_sc_hd__fill_2
XFILLER_0_48_37 vssd1 vssd1 vccd1 vccd1 sky130_ef_sc_hd__decap_12
XFILLER_0_49_111 vssd1 vssd1 vccd1 vccd1 sky130_fd_sc_hd__fill_1
XFILLER_0_52_309 vssd1 vssd1 vccd1 vccd1 sky130_ef_sc_hd__decap_12
XFILLER_0_45_361 vssd1 vssd1 vccd1 vccd1 sky130_fd_sc_hd__decap_4
XFILLER_0_37_317 vssd1 vssd1 vccd1 vccd1 sky130_ef_sc_hd__decap_12
Xhold192 _174_/B vssd1 vssd1 vccd1 vccd1 output8/A sky130_fd_sc_hd__dlygate4sd3_1
Xhold170 hold170/A vssd1 vssd1 vccd1 vccd1 la_data_out[29] sky130_fd_sc_hd__buf_12
Xhold181 _209_/Q vssd1 vssd1 vccd1 vccd1 hold45/A sky130_fd_sc_hd__dlygate4sd3_1
XFILLER_0_18_29 vssd1 vssd1 vccd1 vccd1 sky130_ef_sc_hd__decap_12
XFILLER_0_55_125 vssd1 vssd1 vccd1 vccd1 sky130_ef_sc_hd__decap_12
XFILLER_0_50_49 vssd1 vssd1 vccd1 vccd1 sky130_fd_sc_hd__decap_6
XFILLER_0_55_169 vssd1 vssd1 vccd1 vccd1 sky130_ef_sc_hd__decap_12
XFILLER_0_11_217 vssd1 vssd1 vccd1 vccd1 sky130_fd_sc_hd__decap_6
XFILLER_0_38_9 vssd1 vssd1 vccd1 vccd1 sky130_fd_sc_hd__fill_1
XFILLER_0_61_117 vssd1 vssd1 vccd1 vccd1 sky130_fd_sc_hd__fill_1
XFILLER_0_34_309 vssd1 vssd1 vccd1 vccd1 sky130_ef_sc_hd__decap_12
XFILLER_0_27_361 vssd1 vssd1 vccd1 vccd1 sky130_fd_sc_hd__decap_6
XFILLER_0_6_233 vssd1 vssd1 vccd1 vccd1 sky130_ef_sc_hd__decap_12
XFILLER_0_6_277 vssd1 vssd1 vccd1 vccd1 sky130_ef_sc_hd__decap_12
XFILLER_0_19_317 vssd1 vssd1 vccd1 vccd1 sky130_ef_sc_hd__decap_12
XFILLER_0_24_61 vssd1 vssd1 vccd1 vccd1 sky130_ef_sc_hd__decap_12
XFILLER_0_37_125 vssd1 vssd1 vccd1 vccd1 sky130_ef_sc_hd__decap_12
X_200_ _208_/CLK _200_/D vssd1 vssd1 vccd1 vccd1 _200_/Q sky130_fd_sc_hd__dfxtp_1
XFILLER_0_52_139 vssd1 vssd1 vccd1 vccd1 sky130_fd_sc_hd__fill_1
XFILLER_0_45_180 vssd1 vssd1 vccd1 vccd1 sky130_fd_sc_hd__fill_2
XFILLER_0_37_169 vssd1 vssd1 vccd1 vccd1 sky130_ef_sc_hd__decap_12
X_131_ _164_/A_N _131_/B vssd1 vssd1 vccd1 vccd1 _219_/D sky130_fd_sc_hd__and2b_1
XFILLER_0_45_49 vssd1 vssd1 vccd1 vccd1 sky130_fd_sc_hd__decap_6
XFILLER_0_0_29 vssd1 vssd1 vccd1 vccd1 sky130_fd_sc_hd__decap_8
XFILLER_0_16_309 vssd1 vssd1 vccd1 vccd1 sky130_ef_sc_hd__decap_12
XFILLER_0_51_161 vssd1 vssd1 vccd1 vccd1 sky130_fd_sc_hd__decap_6
XFILLER_0_3_225 vssd1 vssd1 vccd1 vccd1 sky130_ef_sc_hd__decap_12
XFILLER_0_10_85 vssd1 vssd1 vccd1 vccd1 sky130_ef_sc_hd__decap_12
XANTENNA__109__A_N _164_/A_N vssd1 vssd1 vccd1 vccd1 sky130_fd_sc_hd__diode_2
XFILLER_0_35_93 vssd1 vssd1 vccd1 vccd1 sky130_ef_sc_hd__decap_12
XFILLER_0_19_125 vssd1 vssd1 vccd1 vccd1 sky130_ef_sc_hd__decap_12
XFILLER_0_51_81 vssd1 vssd1 vccd1 vccd1 sky130_ef_sc_hd__decap_12
XFILLER_0_34_139 vssd1 vssd1 vccd1 vccd1 sky130_fd_sc_hd__fill_1
XFILLER_0_30_301 vssd1 vssd1 vccd1 vccd1 sky130_fd_sc_hd__decap_6
XFILLER_0_19_158 vssd1 vssd1 vccd1 vccd1 sky130_fd_sc_hd__decap_8
XFILLER_0_19_169 vssd1 vssd1 vccd1 vccd1 sky130_ef_sc_hd__decap_12
XFILLER_0_30_345 vssd1 vssd1 vccd1 vccd1 sky130_ef_sc_hd__decap_12
XTAP_507 vssd1 vccd1 sky130_fd_sc_hd__tapvpwrvgnd_1
XFILLER_0_40_109 vssd1 vssd1 vccd1 vccd1 sky130_ef_sc_hd__decap_12
XFILLER_0_33_161 vssd1 vssd1 vccd1 vccd1 sky130_fd_sc_hd__decap_6
X_114_ _130_/A_N _114_/B vssd1 vssd1 vccd1 vccd1 _202_/D sky130_fd_sc_hd__and2b_1
XFILLER_0_21_367 vssd1 vssd1 vccd1 vccd1 sky130_fd_sc_hd__fill_1
XTAP_529 vssd1 vccd1 sky130_fd_sc_hd__tapvpwrvgnd_1
XTAP_518 vssd1 vccd1 sky130_fd_sc_hd__tapvpwrvgnd_1
XFILLER_0_56_253 vssd1 vssd1 vccd1 vccd1 sky130_ef_sc_hd__decap_12
XFILLER_0_8_339 vssd1 vssd1 vccd1 vccd1 sky130_fd_sc_hd__fill_1
XFILLER_0_12_301 vssd1 vssd1 vccd1 vccd1 sky130_fd_sc_hd__decap_6
XFILLER_0_16_139 vssd1 vssd1 vccd1 vccd1 sky130_fd_sc_hd__fill_1
XFILLER_0_12_345 vssd1 vssd1 vccd1 vccd1 sky130_ef_sc_hd__decap_12
XFILLER_0_12_389 vssd1 vssd1 vccd1 vccd1 sky130_fd_sc_hd__decap_6
XFILLER_0_34_3 vssd1 vssd1 vccd1 vccd1 sky130_fd_sc_hd__decap_6
XFILLER_0_30_153 vssd1 vssd1 vccd1 vccd1 sky130_ef_sc_hd__decap_12
XFILLER_0_7_361 vssd1 vssd1 vccd1 vccd1 sky130_fd_sc_hd__fill_1
XFILLER_0_15_161 vssd1 vssd1 vccd1 vccd1 sky130_fd_sc_hd__decap_6
XFILLER_0_15_183 vssd1 vssd1 vccd1 vccd1 sky130_ef_sc_hd__decap_12
XFILLER_0_22_109 vssd1 vssd1 vccd1 vccd1 sky130_ef_sc_hd__decap_12
Xhold52 hold52/A vssd1 vssd1 vccd1 vccd1 la_data_out[24] sky130_fd_sc_hd__buf_12
Xhold30 hold30/A vssd1 vssd1 vccd1 vccd1 la_data_out[12] sky130_fd_sc_hd__buf_12
Xhold63 hold63/A vssd1 vssd1 vccd1 vccd1 _128_/B sky130_fd_sc_hd__dlygate4sd3_1
Xhold74 hold74/A vssd1 vssd1 vccd1 vccd1 la_data_out[56] sky130_fd_sc_hd__buf_12
XFILLER_0_30_197 vssd1 vssd1 vccd1 vccd1 sky130_ef_sc_hd__decap_12
Xhold41 hold41/A vssd1 vssd1 vccd1 vccd1 _134_/B sky130_fd_sc_hd__dlygate4sd3_1
Xclkbuf_3_7__f_wb_clk_i clkbuf_0_wb_clk_i/X vssd1 vssd1 vccd1 vccd1 _218_/CLK sky130_fd_sc_hd__clkbuf_16
Xhold96 hold96/A vssd1 vssd1 vccd1 vccd1 la_data_out[47] sky130_fd_sc_hd__buf_12
Xhold85 hold85/A vssd1 vssd1 vccd1 vccd1 _112_/B sky130_fd_sc_hd__dlygate4sd3_1
XFILLER_0_53_223 vssd1 vssd1 vccd1 vccd1 sky130_fd_sc_hd__fill_1
XFILLER_0_38_253 vssd1 vssd1 vccd1 vccd1 sky130_ef_sc_hd__decap_12
XTAP_348 vssd1 vccd1 sky130_fd_sc_hd__tapvpwrvgnd_1
XTAP_337 vssd1 vccd1 sky130_fd_sc_hd__tapvpwrvgnd_1
XTAP_326 vssd1 vccd1 sky130_fd_sc_hd__tapvpwrvgnd_1
XTAP_315 vssd1 vccd1 sky130_fd_sc_hd__tapvpwrvgnd_1
XTAP_304 vssd1 vccd1 sky130_fd_sc_hd__tapvpwrvgnd_1
XTAP_359 vssd1 vccd1 sky130_fd_sc_hd__tapvpwrvgnd_1
XFILLER_0_32_83 vssd1 vssd1 vccd1 vccd1 sky130_fd_sc_hd__fill_1
XFILLER_0_29_275 vssd1 vssd1 vccd1 vccd1 sky130_fd_sc_hd__decap_4
XFILLER_0_16_73 vssd1 vssd1 vccd1 vccd1 sky130_fd_sc_hd__decap_8
XFILLER_0_44_289 vssd1 vssd1 vccd1 vccd1 sky130_ef_sc_hd__decap_12
XFILLER_0_44_245 vssd1 vssd1 vccd1 vccd1 sky130_fd_sc_hd__decap_6
XFILLER_0_12_153 vssd1 vssd1 vccd1 vccd1 sky130_ef_sc_hd__decap_12
XFILLER_0_12_197 vssd1 vssd1 vccd1 vccd1 sky130_ef_sc_hd__decap_12
XFILLER_0_35_223 vssd1 vssd1 vccd1 vccd1 sky130_fd_sc_hd__fill_1
Xoutput20 hold186/X vssd1 vssd1 vccd1 vccd1 hold114/A sky130_fd_sc_hd__buf_6
Xoutput7 output7/A vssd1 vssd1 vccd1 vccd1 hold22/A sky130_fd_sc_hd__buf_6
Xoutput53 hold240/X vssd1 vssd1 vccd1 vccd1 hold74/A sky130_fd_sc_hd__buf_6
Xoutput75 hold288/X vssd1 vssd1 vccd1 vccd1 hold120/A sky130_fd_sc_hd__buf_6
Xoutput64 hold268/X vssd1 vssd1 vccd1 vccd1 hold50/A sky130_fd_sc_hd__buf_6
Xoutput31 hold194/X vssd1 vssd1 vccd1 vccd1 hold136/A sky130_fd_sc_hd__buf_6
Xoutput42 hold252/X vssd1 vssd1 vccd1 vccd1 hold92/A sky130_fd_sc_hd__buf_6
Xoutput86 hold202/X vssd1 vssd1 vccd1 vccd1 hold4/A sky130_fd_sc_hd__buf_6
XFILLER_0_41_237 vssd1 vssd1 vccd1 vccd1 sky130_ef_sc_hd__decap_12
XFILLER_0_26_289 vssd1 vssd1 vccd1 vccd1 sky130_ef_sc_hd__decap_12
XFILLER_0_26_223 vssd1 vssd1 vccd1 vccd1 sky130_fd_sc_hd__fill_2
XTAP_167 vssd1 vccd1 sky130_fd_sc_hd__tapvpwrvgnd_1
XTAP_156 vssd1 vccd1 sky130_fd_sc_hd__tapvpwrvgnd_1
XFILLER_0_1_389 vssd1 vssd1 vccd1 vccd1 sky130_fd_sc_hd__decap_3
XTAP_145 vssd1 vccd1 sky130_fd_sc_hd__tapvpwrvgnd_1
XTAP_134 vssd1 vccd1 sky130_fd_sc_hd__tapvpwrvgnd_1
XTAP_178 vssd1 vccd1 sky130_fd_sc_hd__tapvpwrvgnd_1
XTAP_189 vssd1 vccd1 sky130_fd_sc_hd__tapvpwrvgnd_1
XFILLER_0_43_93 vssd1 vssd1 vccd1 vccd1 sky130_fd_sc_hd__fill_2
XFILLER_0_17_223 vssd1 vssd1 vccd1 vccd1 sky130_fd_sc_hd__fill_1
Xhold341 _239_/Q vssd1 vssd1 vccd1 vccd1 hold341/X sky130_fd_sc_hd__dlygate4sd3_1
XFILLER_0_4_194 vssd1 vssd1 vccd1 vccd1 sky130_fd_sc_hd__fill_2
XFILLER_0_7_93 vssd1 vssd1 vccd1 vccd1 sky130_ef_sc_hd__decap_12
Xhold330 _131_/B vssd1 vssd1 vccd1 vccd1 hold330/X sky130_fd_sc_hd__buf_1
Xhold352 _167_/B vssd1 vssd1 vccd1 vccd1 hold352/X sky130_fd_sc_hd__buf_1
XFILLER_0_48_49 vssd1 vssd1 vccd1 vccd1 sky130_ef_sc_hd__decap_12
XFILLER_0_58_189 vssd1 vssd1 vccd1 vccd1 sky130_fd_sc_hd__decap_6
XFILLER_0_46_307 vssd1 vssd1 vccd1 vccd1 sky130_fd_sc_hd__fill_1
XFILLER_0_54_395 vssd1 vssd1 vccd1 vccd1 sky130_fd_sc_hd__fill_1
XFILLER_0_1_120 vssd1 vssd1 vccd1 vccd1 sky130_fd_sc_hd__fill_2
XFILLER_0_1_142 vssd1 vssd1 vccd1 vccd1 sky130_fd_sc_hd__fill_1
XFILLER_0_49_167 vssd1 vssd1 vccd1 vccd1 sky130_fd_sc_hd__fill_1
XFILLER_0_37_329 vssd1 vssd1 vccd1 vccd1 sky130_fd_sc_hd__decap_6
Xhold171 hold349/X vssd1 vssd1 vccd1 vccd1 _159_/B sky130_fd_sc_hd__dlygate4sd3_1
Xhold182 _120_/B vssd1 vssd1 vccd1 vccd1 hold182/X sky130_fd_sc_hd__dlygate4sd3_1
Xhold160 hold160/A vssd1 vssd1 vccd1 vccd1 la_data_out[70] sky130_fd_sc_hd__buf_12
Xhold193 _196_/Q vssd1 vssd1 vccd1 vccd1 hold193/X sky130_fd_sc_hd__dlygate4sd3_1
XFILLER_0_13_281 vssd1 vssd1 vccd1 vccd1 sky130_ef_sc_hd__decap_12
XANTENNA__165__A_N _165_/A_N vssd1 vssd1 vccd1 vccd1 sky130_fd_sc_hd__diode_2
XFILLER_0_55_137 vssd1 vssd1 vccd1 vccd1 sky130_ef_sc_hd__decap_12
XFILLER_0_36_395 vssd1 vssd1 vccd1 vccd1 sky130_fd_sc_hd__fill_1
XFILLER_0_36_373 vssd1 vssd1 vccd1 vccd1 sky130_fd_sc_hd__fill_1
XFILLER_0_19_329 vssd1 vssd1 vccd1 vccd1 sky130_fd_sc_hd__decap_6
XFILLER_0_24_73 vssd1 vssd1 vccd1 vccd1 sky130_fd_sc_hd__decap_8
XFILLER_0_42_332 vssd1 vssd1 vccd1 vccd1 sky130_ef_sc_hd__decap_12
XFILLER_0_42_321 vssd1 vssd1 vccd1 vccd1 sky130_fd_sc_hd__decap_3
XFILLER_0_40_61 vssd1 vssd1 vccd1 vccd1 sky130_ef_sc_hd__decap_12
XFILLER_0_6_245 vssd1 vssd1 vccd1 vccd1 sky130_fd_sc_hd__decap_6
XFILLER_0_6_289 vssd1 vssd1 vccd1 vccd1 sky130_ef_sc_hd__decap_12
XFILLER_0_49_81 vssd1 vssd1 vccd1 vccd1 sky130_ef_sc_hd__decap_12
XFILLER_0_4_83 vssd1 vssd1 vccd1 vccd1 sky130_fd_sc_hd__fill_1
X_130_ _130_/A_N _130_/B vssd1 vssd1 vccd1 vccd1 _218_/D sky130_fd_sc_hd__and2b_1
XFILLER_0_37_137 vssd1 vssd1 vccd1 vccd1 sky130_ef_sc_hd__decap_12
XFILLER_0_18_395 vssd1 vssd1 vccd1 vccd1 sky130_fd_sc_hd__fill_1
XANTENNA_clkbuf_3_5__f_wb_clk_i_A clkbuf_0_wb_clk_i/X vssd1 vssd1 vccd1 vccd1 sky130_fd_sc_hd__diode_2
XFILLER_0_0_19 vssd1 vssd1 vccd1 vccd1 sky130_fd_sc_hd__decap_4
X_259_ _263_/CLK _259_/D vssd1 vssd1 vccd1 vccd1 _259_/Q sky130_fd_sc_hd__dfxtp_1
XFILLER_0_3_204 vssd1 vssd1 vccd1 vccd1 sky130_ef_sc_hd__decap_12
XFILLER_0_24_321 vssd1 vssd1 vccd1 vccd1 sky130_ef_sc_hd__decap_12
XFILLER_0_3_237 vssd1 vssd1 vccd1 vccd1 sky130_ef_sc_hd__decap_12
XFILLER_0_10_97 vssd1 vssd1 vccd1 vccd1 sky130_fd_sc_hd__decap_4
XFILLER_0_24_365 vssd1 vssd1 vccd1 vccd1 sky130_fd_sc_hd__decap_3
XFILLER_0_19_137 vssd1 vssd1 vccd1 vccd1 sky130_fd_sc_hd__decap_4
XFILLER_0_51_93 vssd1 vssd1 vccd1 vccd1 sky130_ef_sc_hd__decap_12
XFILLER_0_42_195 vssd1 vssd1 vccd1 vccd1 sky130_fd_sc_hd__fill_1
XFILLER_0_27_181 vssd1 vssd1 vccd1 vccd1 sky130_ef_sc_hd__decap_12
XFILLER_0_15_310 vssd1 vssd1 vccd1 vccd1 sky130_ef_sc_hd__decap_12
XFILLER_0_30_357 vssd1 vssd1 vccd1 vccd1 sky130_fd_sc_hd__decap_6
Xclkbuf_3_6__f_wb_clk_i clkbuf_0_wb_clk_i/X vssd1 vssd1 vccd1 vccd1 _250_/CLK sky130_fd_sc_hd__clkbuf_16
X_113_ _164_/A_N _113_/B vssd1 vssd1 vccd1 vccd1 _201_/D sky130_fd_sc_hd__and2b_1
XTAP_519 vssd1 vccd1 sky130_fd_sc_hd__tapvpwrvgnd_1
XTAP_508 vssd1 vccd1 sky130_fd_sc_hd__tapvpwrvgnd_1
XFILLER_0_21_335 vssd1 vssd1 vccd1 vccd1 sky130_fd_sc_hd__fill_1
XFILLER_0_56_27 vssd1 vssd1 vccd1 vccd1 sky130_fd_sc_hd__fill_1
XFILLER_0_56_265 vssd1 vssd1 vccd1 vccd1 sky130_ef_sc_hd__decap_12
XFILLER_0_56_221 vssd1 vssd1 vccd1 vccd1 sky130_ef_sc_hd__decap_12
XFILLER_0_8_307 vssd1 vssd1 vccd1 vccd1 sky130_fd_sc_hd__fill_1
XFILLER_0_24_195 vssd1 vssd1 vccd1 vccd1 sky130_fd_sc_hd__fill_1
XFILLER_0_12_357 vssd1 vssd1 vccd1 vccd1 sky130_fd_sc_hd__decap_6
XFILLER_0_27_3 vssd1 vssd1 vccd1 vccd1 sky130_fd_sc_hd__decap_6
XFILLER_0_62_268 vssd1 vssd1 vccd1 vccd1 sky130_fd_sc_hd__fill_1
XFILLER_0_30_165 vssd1 vssd1 vccd1 vccd1 sky130_ef_sc_hd__decap_12
XFILLER_0_30_121 vssd1 vssd1 vccd1 vccd1 sky130_ef_sc_hd__decap_12
XFILLER_0_15_195 vssd1 vssd1 vccd1 vccd1 sky130_ef_sc_hd__decap_12
Xhold20 hold20/A vssd1 vssd1 vccd1 vccd1 la_data_out[19] sky130_fd_sc_hd__buf_12
Xhold64 hold64/A vssd1 vssd1 vccd1 vccd1 la_data_out[57] sky130_fd_sc_hd__buf_12
Xhold53 hold53/A vssd1 vssd1 vccd1 vccd1 _129_/B sky130_fd_sc_hd__dlygate4sd3_1
Xhold97 hold97/A vssd1 vssd1 vccd1 vccd1 _121_/B sky130_fd_sc_hd__dlygate4sd3_1
Xhold31 hold31/A vssd1 vssd1 vccd1 vccd1 _104_/B sky130_fd_sc_hd__dlygate4sd3_1
Xhold42 hold42/A vssd1 vssd1 vccd1 vccd1 la_data_out[63] sky130_fd_sc_hd__buf_12
Xhold86 hold86/A vssd1 vssd1 vccd1 vccd1 la_data_out[41] sky130_fd_sc_hd__buf_12
Xhold75 hold75/A vssd1 vssd1 vccd1 vccd1 _113_/B sky130_fd_sc_hd__dlygate4sd3_1
XFILLER_0_38_265 vssd1 vssd1 vccd1 vccd1 sky130_ef_sc_hd__decap_12
XFILLER_0_38_221 vssd1 vssd1 vccd1 vccd1 sky130_ef_sc_hd__decap_12
XFILLER_0_53_279 vssd1 vssd1 vccd1 vccd1 sky130_fd_sc_hd__fill_1
XTAP_349 vssd1 vccd1 sky130_fd_sc_hd__tapvpwrvgnd_1
XTAP_338 vssd1 vccd1 sky130_fd_sc_hd__tapvpwrvgnd_1
XTAP_327 vssd1 vccd1 sky130_fd_sc_hd__tapvpwrvgnd_1
XTAP_316 vssd1 vccd1 sky130_fd_sc_hd__tapvpwrvgnd_1
XFILLER_0_6_29 vssd1 vssd1 vccd1 vccd1 sky130_ef_sc_hd__decap_12
XTAP_305 vssd1 vccd1 sky130_fd_sc_hd__tapvpwrvgnd_1
XFILLER_0_16_85 vssd1 vssd1 vccd1 vccd1 sky130_ef_sc_hd__decap_12
XFILLER_0_12_121 vssd1 vssd1 vccd1 vccd1 sky130_ef_sc_hd__decap_12
XFILLER_0_12_165 vssd1 vssd1 vccd1 vccd1 sky130_ef_sc_hd__decap_12
XFILLER_0_35_279 vssd1 vssd1 vccd1 vccd1 sky130_fd_sc_hd__fill_1
XFILLER_0_7_181 vssd1 vssd1 vccd1 vccd1 sky130_fd_sc_hd__decap_8
Xoutput8 output8/A vssd1 vssd1 vccd1 vccd1 hold14/A sky130_fd_sc_hd__buf_6
Xoutput10 hold214/X vssd1 vssd1 vccd1 vccd1 hold26/A sky130_fd_sc_hd__buf_6
Xoutput21 hold314/X vssd1 vssd1 vccd1 vccd1 hold116/A sky130_fd_sc_hd__buf_6
Xoutput54 hold222/X vssd1 vssd1 vccd1 vccd1 hold64/A sky130_fd_sc_hd__buf_6
Xoutput76 hold284/X vssd1 vssd1 vccd1 vccd1 hold132/A sky130_fd_sc_hd__buf_6
Xoutput43 hold234/X vssd1 vssd1 vccd1 vccd1 hold96/A sky130_fd_sc_hd__buf_6
Xoutput32 hold278/X vssd1 vssd1 vccd1 vccd1 hold112/A sky130_fd_sc_hd__buf_6
Xoutput65 hold218/X vssd1 vssd1 vccd1 vccd1 hold38/A sky130_fd_sc_hd__buf_6
Xoutput87 hold328/X vssd1 vssd1 vccd1 vccd1 hold144/A sky130_fd_sc_hd__buf_6
XFILLER_0_41_249 vssd1 vssd1 vccd1 vccd1 sky130_ef_sc_hd__decap_12
XFILLER_0_41_205 vssd1 vssd1 vccd1 vccd1 sky130_ef_sc_hd__decap_12
XFILLER_0_1_346 vssd1 vssd1 vccd1 vccd1 sky130_fd_sc_hd__fill_2
XFILLER_0_1_335 vssd1 vssd1 vccd1 vccd1 sky130_fd_sc_hd__fill_1
XTAP_168 vssd1 vccd1 sky130_fd_sc_hd__tapvpwrvgnd_1
XTAP_157 vssd1 vccd1 sky130_fd_sc_hd__tapvpwrvgnd_1
XTAP_146 vssd1 vccd1 sky130_fd_sc_hd__tapvpwrvgnd_1
XTAP_135 vssd1 vccd1 sky130_fd_sc_hd__tapvpwrvgnd_1
XTAP_179 vssd1 vccd1 sky130_fd_sc_hd__tapvpwrvgnd_1
XFILLER_0_57_393 vssd1 vssd1 vccd1 vccd1 sky130_fd_sc_hd__decap_3
XFILLER_0_17_279 vssd1 vssd1 vccd1 vccd1 sky130_fd_sc_hd__fill_1
Xhold342 _150_/B vssd1 vssd1 vccd1 vccd1 hold342/X sky130_fd_sc_hd__dlygate4sd3_1
Xhold331 _189_/Q vssd1 vssd1 vccd1 vccd1 hold331/X sky130_fd_sc_hd__dlygate4sd3_1
Xhold353 _220_/Q vssd1 vssd1 vccd1 vccd1 hold353/X sky130_fd_sc_hd__dlygate4sd3_1
Xhold320 _163_/B vssd1 vssd1 vccd1 vccd1 hold320/X sky130_fd_sc_hd__buf_1
XANTENNA__094__A_N _162_/A_N vssd1 vssd1 vccd1 vccd1 sky130_fd_sc_hd__diode_2
XFILLER_0_23_205 vssd1 vssd1 vccd1 vccd1 sky130_ef_sc_hd__decap_12
XFILLER_0_3_19 vssd1 vssd1 vccd1 vccd1 sky130_ef_sc_hd__decap_12
XFILLER_0_39_393 vssd1 vssd1 vccd1 vccd1 sky130_fd_sc_hd__decap_3
XFILLER_0_13_53 vssd1 vssd1 vccd1 vccd1 sky130_fd_sc_hd__decap_3
XFILLER_0_38_83 vssd1 vssd1 vccd1 vccd1 sky130_fd_sc_hd__fill_1
XFILLER_0_49_113 vssd1 vssd1 vccd1 vccd1 sky130_ef_sc_hd__decap_12
Xhold150 hold150/A vssd1 vssd1 vccd1 vccd1 la_data_out[59] sky130_fd_sc_hd__buf_12
Xhold172 output2/X vssd1 vssd1 vccd1 vccd1 la_data_out[0] sky130_fd_sc_hd__buf_12
Xhold161 hold337/X vssd1 vssd1 vccd1 vccd1 _161_/B sky130_fd_sc_hd__dlygate4sd3_1
Xhold183 _253_/Q vssd1 vssd1 vccd1 vccd1 hold183/X sky130_fd_sc_hd__dlygate4sd3_1
Xhold194 _107_/B vssd1 vssd1 vccd1 vccd1 hold194/X sky130_fd_sc_hd__dlygate4sd3_1
XFILLER_0_13_293 vssd1 vssd1 vccd1 vccd1 sky130_ef_sc_hd__decap_12
XFILLER_0_55_149 vssd1 vssd1 vccd1 vccd1 sky130_ef_sc_hd__decap_12
XFILLER_0_55_105 vssd1 vssd1 vccd1 vccd1 sky130_fd_sc_hd__decap_6
XFILLER_0_36_363 vssd1 vssd1 vccd1 vccd1 sky130_fd_sc_hd__fill_1
XFILLER_0_24_85 vssd1 vssd1 vccd1 vccd1 sky130_ef_sc_hd__decap_12
XFILLER_0_42_344 vssd1 vssd1 vccd1 vccd1 sky130_ef_sc_hd__decap_12
XFILLER_0_40_73 vssd1 vssd1 vccd1 vccd1 sky130_fd_sc_hd__decap_8
XFILLER_0_27_385 vssd1 vssd1 vccd1 vccd1 sky130_fd_sc_hd__decap_6
XFILLER_0_57_3 vssd1 vssd1 vccd1 vccd1 sky130_fd_sc_hd__decap_6
XFILLER_0_49_93 vssd1 vssd1 vccd1 vccd1 sky130_ef_sc_hd__decap_12
XFILLER_0_10_241 vssd1 vssd1 vccd1 vccd1 sky130_fd_sc_hd__decap_8
Xclkbuf_3_5__f_wb_clk_i clkbuf_0_wb_clk_i/X vssd1 vssd1 vccd1 vccd1 _208_/CLK sky130_fd_sc_hd__clkbuf_16
XFILLER_0_37_149 vssd1 vssd1 vccd1 vccd1 sky130_ef_sc_hd__decap_12
XFILLER_0_37_105 vssd1 vssd1 vccd1 vccd1 sky130_fd_sc_hd__decap_6
XFILLER_0_18_363 vssd1 vssd1 vccd1 vccd1 sky130_fd_sc_hd__fill_1
XANTENNA__132__A_N _167_/A_N vssd1 vssd1 vccd1 vccd1 sky130_fd_sc_hd__diode_2
X_258_ _258_/CLK _258_/D vssd1 vssd1 vccd1 vccd1 _258_/Q sky130_fd_sc_hd__dfxtp_1
X_189_ _250_/CLK _189_/D vssd1 vssd1 vccd1 vccd1 _189_/Q sky130_fd_sc_hd__dfxtp_1
XFILLER_0_3_249 vssd1 vssd1 vccd1 vccd1 sky130_fd_sc_hd__decap_8
XFILLER_0_3_216 vssd1 vssd1 vccd1 vccd1 sky130_fd_sc_hd__decap_8
XFILLER_0_24_333 vssd1 vssd1 vccd1 vccd1 sky130_ef_sc_hd__decap_12
XFILLER_0_59_241 vssd1 vssd1 vccd1 vccd1 sky130_fd_sc_hd__fill_1
XANTENNA__155__A_N _167_/A_N vssd1 vssd1 vccd1 vccd1 sky130_fd_sc_hd__diode_2
XFILLER_0_19_105 vssd1 vssd1 vccd1 vccd1 sky130_fd_sc_hd__decap_6
XFILLER_0_42_141 vssd1 vssd1 vccd1 vccd1 sky130_ef_sc_hd__decap_12
XFILLER_0_27_193 vssd1 vssd1 vccd1 vccd1 sky130_ef_sc_hd__decap_12
XFILLER_0_15_322 vssd1 vssd1 vccd1 vccd1 sky130_ef_sc_hd__decap_12
X_112_ _164_/A_N _112_/B vssd1 vssd1 vccd1 vccd1 _200_/D sky130_fd_sc_hd__and2b_1
XTAP_509 vssd1 vccd1 sky130_fd_sc_hd__tapvpwrvgnd_1
XFILLER_0_56_277 vssd1 vssd1 vccd1 vccd1 sky130_ef_sc_hd__decap_12
XFILLER_0_56_233 vssd1 vssd1 vccd1 vccd1 sky130_ef_sc_hd__decap_12
XFILLER_0_24_141 vssd1 vssd1 vccd1 vccd1 sky130_ef_sc_hd__decap_12
XFILLER_0_46_83 vssd1 vssd1 vccd1 vccd1 sky130_fd_sc_hd__fill_1
XFILLER_0_1_63 vssd1 vssd1 vccd1 vccd1 sky130_fd_sc_hd__fill_1
XFILLER_0_1_96 vssd1 vssd1 vccd1 vccd1 sky130_fd_sc_hd__decap_6
XFILLER_0_62_225 vssd1 vssd1 vccd1 vccd1 sky130_fd_sc_hd__decap_4
XFILLER_0_30_177 vssd1 vssd1 vccd1 vccd1 sky130_ef_sc_hd__decap_12
XFILLER_0_30_133 vssd1 vssd1 vccd1 vccd1 sky130_fd_sc_hd__decap_6
Xhold21 hold21/A vssd1 vssd1 vccd1 vccd1 _173_/B sky130_fd_sc_hd__dlygate4sd3_1
Xhold87 hold87/A vssd1 vssd1 vccd1 vccd1 _092_/B sky130_fd_sc_hd__dlygate4sd3_1
Xhold54 hold54/A vssd1 vssd1 vccd1 vccd1 la_data_out[58] sky130_fd_sc_hd__buf_12
Xhold65 hold65/A vssd1 vssd1 vccd1 vccd1 _122_/B sky130_fd_sc_hd__dlygate4sd3_1
Xhold98 hold98/A vssd1 vssd1 vccd1 vccd1 la_data_out[50] sky130_fd_sc_hd__buf_12
Xhold32 hold32/A vssd1 vssd1 vccd1 vccd1 la_data_out[33] sky130_fd_sc_hd__buf_12
Xhold43 hold43/A vssd1 vssd1 vccd1 vccd1 _135_/B sky130_fd_sc_hd__dlygate4sd3_1
Xhold10 hold10/A vssd1 vssd1 vccd1 vccd1 la_data_out[82] sky130_fd_sc_hd__buf_12
Xhold76 hold76/A vssd1 vssd1 vccd1 vccd1 la_data_out[42] sky130_fd_sc_hd__buf_12
XFILLER_0_38_277 vssd1 vssd1 vccd1 vccd1 sky130_ef_sc_hd__decap_12
XFILLER_0_38_233 vssd1 vssd1 vccd1 vccd1 sky130_ef_sc_hd__decap_12
XFILLER_0_53_225 vssd1 vssd1 vccd1 vccd1 sky130_ef_sc_hd__decap_12
XFILLER_0_21_111 vssd1 vssd1 vccd1 vccd1 sky130_fd_sc_hd__fill_1
XTAP_339 vssd1 vccd1 sky130_fd_sc_hd__tapvpwrvgnd_1
XTAP_328 vssd1 vccd1 sky130_fd_sc_hd__tapvpwrvgnd_1
XTAP_317 vssd1 vccd1 sky130_fd_sc_hd__tapvpwrvgnd_1
XTAP_306 vssd1 vccd1 sky130_fd_sc_hd__tapvpwrvgnd_1
XFILLER_0_16_97 vssd1 vssd1 vccd1 vccd1 sky130_ef_sc_hd__decap_12
XFILLER_0_32_85 vssd1 vssd1 vccd1 vccd1 sky130_ef_sc_hd__decap_12
XFILLER_0_32_41 vssd1 vssd1 vccd1 vccd1 sky130_ef_sc_hd__decap_12
XFILLER_0_29_233 vssd1 vssd1 vccd1 vccd1 sky130_ef_sc_hd__decap_12
XFILLER_0_12_133 vssd1 vssd1 vccd1 vccd1 sky130_fd_sc_hd__decap_6
XFILLER_0_12_177 vssd1 vssd1 vccd1 vccd1 sky130_ef_sc_hd__decap_12
XFILLER_0_35_225 vssd1 vssd1 vccd1 vccd1 sky130_ef_sc_hd__decap_12
Xoutput11 hold190/X vssd1 vssd1 vccd1 vccd1 hold16/A sky130_fd_sc_hd__buf_6
Xoutput9 output9/A vssd1 vssd1 vccd1 vccd1 hold34/A sky130_fd_sc_hd__buf_6
Xoutput55 hold198/X vssd1 vssd1 vccd1 vccd1 hold54/A sky130_fd_sc_hd__buf_6
Xoutput22 hold318/X vssd1 vssd1 vccd1 vccd1 hold124/A sky130_fd_sc_hd__buf_6
Xoutput77 hold300/X vssd1 vssd1 vccd1 vccd1 hold134/A sky130_fd_sc_hd__buf_6
Xoutput44 hold196/X vssd1 vssd1 vccd1 vccd1 hold48/A sky130_fd_sc_hd__buf_6
Xoutput33 hold248/X vssd1 vssd1 vccd1 vccd1 hold102/A sky130_fd_sc_hd__buf_6
Xoutput88 hold352/X vssd1 vssd1 vccd1 vccd1 hold176/A sky130_fd_sc_hd__buf_6
Xoutput66 hold274/X vssd1 vssd1 vccd1 vccd1 hold82/A sky130_fd_sc_hd__buf_6
XFILLER_0_9_3 vssd1 vssd1 vccd1 vccd1 sky130_fd_sc_hd__decap_6
XFILLER_0_41_217 vssd1 vssd1 vccd1 vccd1 sky130_fd_sc_hd__decap_6
XTAP_169 vssd1 vccd1 sky130_fd_sc_hd__tapvpwrvgnd_1
XTAP_158 vssd1 vccd1 sky130_fd_sc_hd__tapvpwrvgnd_1
XTAP_147 vssd1 vccd1 sky130_fd_sc_hd__tapvpwrvgnd_1
XTAP_136 vssd1 vccd1 sky130_fd_sc_hd__tapvpwrvgnd_1
XFILLER_0_57_350 vssd1 vssd1 vccd1 vccd1 sky130_fd_sc_hd__fill_2
XANTENNA__189__CLK _250_/CLK vssd1 vssd1 vccd1 vccd1 sky130_fd_sc_hd__diode_2
Xhold310 _096_/B vssd1 vssd1 vccd1 vccd1 hold310/X sky130_fd_sc_hd__dlygate4sd3_1
XFILLER_0_17_225 vssd1 vssd1 vccd1 vccd1 sky130_ef_sc_hd__decap_12
Xhold332 _100_/B vssd1 vssd1 vccd1 vccd1 hold332/X sky130_fd_sc_hd__dlygate4sd3_1
Xhold321 _192_/Q vssd1 vssd1 vccd1 vccd1 hold321/X sky130_fd_sc_hd__dlygate4sd3_1
Xhold343 _251_/Q vssd1 vssd1 vccd1 vccd1 hold343/X sky130_fd_sc_hd__dlygate4sd3_1
XFILLER_0_31_261 vssd1 vssd1 vccd1 vccd1 sky130_ef_sc_hd__decap_12
XFILLER_0_23_217 vssd1 vssd1 vccd1 vccd1 sky130_fd_sc_hd__decap_6
XFILLER_0_58_125 vssd1 vssd1 vccd1 vccd1 sky130_fd_sc_hd__fill_1
XFILLER_0_46_309 vssd1 vssd1 vccd1 vccd1 sky130_ef_sc_hd__decap_12
XFILLER_0_39_361 vssd1 vssd1 vccd1 vccd1 sky130_fd_sc_hd__decap_4
XFILLER_0_1_199 vssd1 vssd1 vccd1 vccd1 sky130_fd_sc_hd__fill_1
XFILLER_0_54_61 vssd1 vssd1 vccd1 vccd1 sky130_ef_sc_hd__decap_12
Xclkbuf_3_4__f_wb_clk_i clkbuf_0_wb_clk_i/X vssd1 vssd1 vccd1 vccd1 _252_/CLK sky130_fd_sc_hd__clkbuf_16
XFILLER_0_49_169 vssd1 vssd1 vccd1 vccd1 sky130_ef_sc_hd__decap_12
XFILLER_0_49_125 vssd1 vssd1 vccd1 vccd1 sky130_ef_sc_hd__decap_12
Xhold162 hold162/A vssd1 vssd1 vccd1 vccd1 la_data_out[2] sky130_fd_sc_hd__buf_12
XFILLER_0_60_378 vssd1 vssd1 vccd1 vccd1 sky130_fd_sc_hd__fill_1
Xhold140 hold140/A vssd1 vssd1 vccd1 vccd1 la_data_out[71] sky130_fd_sc_hd__buf_12
Xhold151 hold329/X vssd1 vssd1 vccd1 vccd1 _131_/B sky130_fd_sc_hd__buf_1
XFILLER_0_13_261 vssd1 vssd1 vccd1 vccd1 sky130_ef_sc_hd__decap_12
XFILLER_0_20_209 vssd1 vssd1 vccd1 vccd1 sky130_ef_sc_hd__decap_12
Xhold195 _208_/Q vssd1 vssd1 vccd1 vccd1 hold47/A sky130_fd_sc_hd__dlygate4sd3_1
Xhold184 _164_/B vssd1 vssd1 vccd1 vccd1 hold184/X sky130_fd_sc_hd__buf_1
Xhold173 hold343/X vssd1 vssd1 vccd1 vccd1 _162_/B sky130_fd_sc_hd__dlygate4sd3_1
XFILLER_0_28_309 vssd1 vssd1 vccd1 vccd1 sky130_ef_sc_hd__decap_12
XFILLER_0_51_389 vssd1 vssd1 vccd1 vccd1 sky130_fd_sc_hd__decap_3
XFILLER_0_46_139 vssd1 vssd1 vccd1 vccd1 sky130_fd_sc_hd__fill_1
XFILLER_0_24_97 vssd1 vssd1 vccd1 vccd1 sky130_ef_sc_hd__decap_12
XFILLER_0_42_389 vssd1 vssd1 vccd1 vccd1 sky130_fd_sc_hd__decap_6
XFILLER_0_42_356 vssd1 vssd1 vccd1 vccd1 sky130_fd_sc_hd__decap_8
XFILLER_0_42_301 vssd1 vssd1 vccd1 vccd1 sky130_fd_sc_hd__decap_6
XFILLER_0_40_85 vssd1 vssd1 vccd1 vccd1 sky130_ef_sc_hd__decap_12
XFILLER_0_4_85 vssd1 vssd1 vccd1 vccd1 sky130_fd_sc_hd__decap_4
XFILLER_0_4_41 vssd1 vssd1 vccd1 vccd1 sky130_ef_sc_hd__decap_12
XFILLER_0_10_253 vssd1 vssd1 vccd1 vccd1 sky130_ef_sc_hd__decap_12
XFILLER_0_52_109 vssd1 vssd1 vccd1 vccd1 sky130_ef_sc_hd__decap_12
XFILLER_0_45_150 vssd1 vssd1 vccd1 vccd1 sky130_ef_sc_hd__decap_12
XFILLER_0_33_367 vssd1 vssd1 vccd1 vccd1 sky130_fd_sc_hd__fill_1
XFILLER_0_5_291 vssd1 vssd1 vccd1 vccd1 sky130_fd_sc_hd__decap_3
XFILLER_0_28_139 vssd1 vssd1 vccd1 vccd1 sky130_fd_sc_hd__fill_1
X_188_ _218_/CLK _188_/D vssd1 vssd1 vccd1 vccd1 _188_/Q sky130_fd_sc_hd__dfxtp_1
X_257_ _258_/CLK _257_/D vssd1 vssd1 vccd1 vccd1 _257_/Q sky130_fd_sc_hd__dfxtp_1
XFILLER_0_43_109 vssd1 vssd1 vccd1 vccd1 sky130_fd_sc_hd__decap_3
Xfanout90 _165_/A_N vssd1 vssd1 vccd1 vccd1 _167_/A_N sky130_fd_sc_hd__clkbuf_4
XFILLER_0_24_301 vssd1 vssd1 vccd1 vccd1 sky130_fd_sc_hd__decap_6
XFILLER_0_24_345 vssd1 vssd1 vccd1 vccd1 sky130_ef_sc_hd__decap_12
XFILLER_0_24_389 vssd1 vssd1 vccd1 vccd1 sky130_fd_sc_hd__decap_6
XFILLER_0_19_53 vssd1 vssd1 vccd1 vccd1 sky130_fd_sc_hd__decap_3
XFILLER_0_59_264 vssd1 vssd1 vccd1 vccd1 sky130_fd_sc_hd__fill_1
XFILLER_0_59_297 vssd1 vssd1 vccd1 vccd1 sky130_fd_sc_hd__fill_1
XFILLER_0_34_109 vssd1 vssd1 vccd1 vccd1 sky130_ef_sc_hd__decap_12
XFILLER_0_27_161 vssd1 vssd1 vccd1 vccd1 sky130_fd_sc_hd__decap_6
XFILLER_0_15_301 vssd1 vssd1 vccd1 vccd1 sky130_fd_sc_hd__fill_1
XFILLER_0_15_334 vssd1 vssd1 vccd1 vccd1 sky130_fd_sc_hd__fill_2
XFILLER_0_42_197 vssd1 vssd1 vccd1 vccd1 sky130_ef_sc_hd__decap_12