* NGSPICE file created from unused_tie.ext - technology: sky130A

* Black-box entry subcircuit for sky130_fd_sc_hd__tapvpwrvgnd_1 abstract view
.subckt sky130_fd_sc_hd__tapvpwrvgnd_1 VGND VPWR
.ends

* Black-box entry subcircuit for sky130_ef_sc_hd__decap_12 abstract view
.subckt sky130_ef_sc_hd__decap_12 VGND VNB VPB VPWR
.ends

* Black-box entry subcircuit for sky130_fd_sc_hd__decap_8 abstract view
.subckt sky130_fd_sc_hd__decap_8 VGND VNB VPB VPWR
.ends

* Black-box entry subcircuit for sky130_fd_sc_hd__decap_3 abstract view
.subckt sky130_fd_sc_hd__decap_3 VGND VNB VPB VPWR
.ends

* Black-box entry subcircuit for sky130_fd_sc_hd__dlygate4sd3_1 abstract view
.subckt sky130_fd_sc_hd__dlygate4sd3_1 A VGND VNB VPB VPWR X
.ends

* Black-box entry subcircuit for sky130_fd_sc_hd__decap_4 abstract view
.subckt sky130_fd_sc_hd__decap_4 VGND VNB VPB VPWR
.ends

* Black-box entry subcircuit for sky130_fd_sc_hd__buf_12 abstract view
.subckt sky130_fd_sc_hd__buf_12 A VGND VNB VPB VPWR X
.ends

* Black-box entry subcircuit for sky130_fd_sc_hd__fill_1 abstract view
.subckt sky130_fd_sc_hd__fill_1 VGND VNB VPB VPWR
.ends

* Black-box entry subcircuit for sky130_fd_sc_hd__fill_2 abstract view
.subckt sky130_fd_sc_hd__fill_2 VGND VNB VPB VPWR
.ends

* Black-box entry subcircuit for sky130_fd_sc_hd__decap_6 abstract view
.subckt sky130_fd_sc_hd__decap_6 VGND VNB VPB VPWR
.ends

* Black-box entry subcircuit for sky130_fd_sc_hd__dfxtp_1 abstract view
.subckt sky130_fd_sc_hd__dfxtp_1 CLK D VGND VNB VPB VPWR Q
.ends

* Black-box entry subcircuit for sky130_fd_sc_hd__and2b_1 abstract view
.subckt sky130_fd_sc_hd__and2b_1 A_N B VGND VNB VPB VPWR X
.ends

* Black-box entry subcircuit for sky130_fd_sc_hd__diode_2 abstract view
.subckt sky130_fd_sc_hd__diode_2 DIODE VGND VNB VPB VPWR
.ends

* Black-box entry subcircuit for sky130_fd_sc_hd__clkbuf_16 abstract view
.subckt sky130_fd_sc_hd__clkbuf_16 A VGND VNB VPB VPWR X
.ends

* Black-box entry subcircuit for sky130_fd_sc_hd__buf_6 abstract view
.subckt sky130_fd_sc_hd__buf_6 A VGND VNB VPB VPWR X
.ends

* Black-box entry subcircuit for sky130_fd_sc_hd__buf_1 abstract view
.subckt sky130_fd_sc_hd__buf_1 A VGND VNB VPB VPWR X
.ends

* Black-box entry subcircuit for sky130_fd_sc_hd__clkbuf_4 abstract view
.subckt sky130_fd_sc_hd__clkbuf_4 A VGND VNB VPB VPWR X
.ends

* Black-box entry subcircuit for sky130_fd_sc_hd__buf_2 abstract view
.subckt sky130_fd_sc_hd__buf_2 A VGND VNB VPB VPWR X
.ends

* Black-box entry subcircuit for sky130_fd_sc_hd__buf_4 abstract view
.subckt sky130_fd_sc_hd__buf_4 A VGND VNB VPB VPWR X
.ends

* Black-box entry subcircuit for sky130_fd_sc_hd__clkdlybuf4s25_1 abstract view
.subckt sky130_fd_sc_hd__clkdlybuf4s25_1 A VGND VNB VPB VPWR X
.ends

* Black-box entry subcircuit for sky130_fd_sc_hd__clkbuf_1 abstract view
.subckt sky130_fd_sc_hd__clkbuf_1 A VGND VNB VPB VPWR X
.ends

* Black-box entry subcircuit for sky130_fd_sc_hd__or2_1 abstract view
.subckt sky130_fd_sc_hd__or2_1 A B VGND VNB VPB VPWR X
.ends

* Black-box entry subcircuit for sky130_fd_sc_hd__conb_1 abstract view
.subckt sky130_fd_sc_hd__conb_1 VGND VNB VPB VPWR HI LO
.ends

.subckt unused_tie irq[0] irq[1] irq[2] la_data_out[0] la_data_out[10] la_data_out[11]
+ la_data_out[12] la_data_out[13] la_data_out[14] la_data_out[15] la_data_out[16]
+ la_data_out[17] la_data_out[18] la_data_out[19] la_data_out[1] la_data_out[20] la_data_out[21]
+ la_data_out[22] la_data_out[23] la_data_out[24] la_data_out[25] la_data_out[26]
+ la_data_out[27] la_data_out[28] la_data_out[29] la_data_out[2] la_data_out[30] la_data_out[31]
+ la_data_out[32] la_data_out[33] la_data_out[34] la_data_out[35] la_data_out[36]
+ la_data_out[37] la_data_out[38] la_data_out[39] la_data_out[3] la_data_out[40] la_data_out[41]
+ la_data_out[42] la_data_out[43] la_data_out[44] la_data_out[45] la_data_out[46]
+ la_data_out[47] la_data_out[48] la_data_out[49] la_data_out[4] la_data_out[50] la_data_out[51]
+ la_data_out[52] la_data_out[53] la_data_out[54] la_data_out[55] la_data_out[56]
+ la_data_out[57] la_data_out[58] la_data_out[59] la_data_out[5] la_data_out[60] la_data_out[61]
+ la_data_out[62] la_data_out[63] la_data_out[64] la_data_out[65] la_data_out[66]
+ la_data_out[67] la_data_out[68] la_data_out[69] la_data_out[6] la_data_out[70] la_data_out[71]
+ la_data_out[72] la_data_out[73] la_data_out[74] la_data_out[75] la_data_out[76]
+ la_data_out[77] la_data_out[78] la_data_out[79] la_data_out[7] la_data_out[80] la_data_out[81]
+ la_data_out[82] la_data_out[83] la_data_out[84] la_data_out[85] la_data_out[86]
+ la_data_out[87] la_data_out[8] la_data_out[9] vccd1 vssd1 wb_clk_i wb_rst_i
XTAP_177 vssd1 vccd1 sky130_fd_sc_hd__tapvpwrvgnd_1
XTAP_188 vssd1 vccd1 sky130_fd_sc_hd__tapvpwrvgnd_1
XTAP_199 vssd1 vccd1 sky130_fd_sc_hd__tapvpwrvgnd_1
XFILLER_0_27_93 vssd1 vssd1 vccd1 vccd1 sky130_ef_sc_hd__decap_12
XFILLER_0_43_81 vssd1 vssd1 vccd1 vccd1 sky130_ef_sc_hd__decap_12
XFILLER_0_7_81 vssd1 vssd1 vccd1 vccd1 sky130_fd_sc_hd__decap_8
XFILLER_0_4_193 vssd1 vssd1 vccd1 vccd1 sky130_fd_sc_hd__decap_3
Xhold340 _101_/B vssd1 vssd1 vccd1 vccd1 hold340/X sky130_fd_sc_hd__dlygate4sd3_1
Xhold351 _252_/Q vssd1 vssd1 vccd1 vccd1 hold351/X sky130_fd_sc_hd__dlygate4sd3_1
XFILLER_0_23_225 vssd1 vssd1 vccd1 vccd1 sky130_ef_sc_hd__decap_12
XFILLER_0_46_317 vssd1 vssd1 vccd1 vccd1 sky130_fd_sc_hd__decap_4
Xhold192 _090_/B vssd1 vssd1 vccd1 vccd1 hold192/X sky130_fd_sc_hd__dlygate4sd3_1
Xhold170 hold170/A vssd1 vssd1 vccd1 vccd1 la_data_out[8] sky130_fd_sc_hd__buf_12
XFILLER_0_20_206 vssd1 vssd1 vccd1 vccd1 sky130_ef_sc_hd__decap_12
Xhold181 _205_/Q vssd1 vssd1 vccd1 vccd1 hold31/A sky130_fd_sc_hd__dlygate4sd3_1
XFILLER_0_50_27 vssd1 vssd1 vccd1 vccd1 sky130_fd_sc_hd__fill_1
XFILLER_0_55_169 vssd1 vssd1 vccd1 vccd1 sky130_fd_sc_hd__fill_2
XFILLER_0_11_217 vssd1 vssd1 vccd1 vccd1 sky130_fd_sc_hd__decap_6
XFILLER_0_38_9 vssd1 vssd1 vccd1 vccd1 sky130_fd_sc_hd__fill_1
XFILLER_0_34_309 vssd1 vssd1 vccd1 vccd1 sky130_ef_sc_hd__decap_12
XFILLER_0_6_233 vssd1 vssd1 vccd1 vccd1 sky130_ef_sc_hd__decap_12
XFILLER_0_19_317 vssd1 vssd1 vccd1 vccd1 sky130_fd_sc_hd__decap_8
XFILLER_0_24_83 vssd1 vssd1 vccd1 vccd1 sky130_fd_sc_hd__fill_1
XFILLER_0_37_125 vssd1 vssd1 vccd1 vccd1 sky130_ef_sc_hd__decap_12
X_200_ _208_/CLK _200_/D vssd1 vssd1 vccd1 vccd1 _200_/Q sky130_fd_sc_hd__dfxtp_1
XFILLER_0_37_169 vssd1 vssd1 vccd1 vccd1 sky130_ef_sc_hd__decap_12
X_131_ _164_/A_N _131_/B vssd1 vssd1 vccd1 vccd1 _219_/D sky130_fd_sc_hd__and2b_1
XFILLER_0_45_49 vssd1 vssd1 vccd1 vccd1 sky130_fd_sc_hd__decap_6
XFILLER_0_16_309 vssd1 vssd1 vccd1 vccd1 sky130_fd_sc_hd__decap_8
XFILLER_0_3_225 vssd1 vssd1 vccd1 vccd1 sky130_fd_sc_hd__decap_8
XFILLER_0_10_85 vssd1 vssd1 vccd1 vccd1 sky130_ef_sc_hd__decap_12
XANTENNA__109__A_N _164_/A_N vssd1 vssd1 vccd1 vccd1 sky130_fd_sc_hd__diode_2
XFILLER_0_35_93 vssd1 vssd1 vccd1 vccd1 sky130_ef_sc_hd__decap_12
XFILLER_0_19_125 vssd1 vssd1 vccd1 vccd1 sky130_ef_sc_hd__decap_12
XFILLER_0_34_139 vssd1 vssd1 vccd1 vccd1 sky130_fd_sc_hd__fill_1
XFILLER_0_30_301 vssd1 vssd1 vccd1 vccd1 sky130_fd_sc_hd__decap_6
XFILLER_0_19_169 vssd1 vssd1 vccd1 vccd1 sky130_ef_sc_hd__decap_12
XFILLER_0_15_19 vssd1 vssd1 vccd1 vccd1 sky130_fd_sc_hd__fill_1
XFILLER_0_40_109 vssd1 vssd1 vccd1 vccd1 sky130_ef_sc_hd__decap_12
XFILLER_0_33_161 vssd1 vssd1 vccd1 vccd1 sky130_fd_sc_hd__decap_6
XFILLER_0_0_206 vssd1 vssd1 vccd1 vccd1 sky130_fd_sc_hd__decap_8
X_114_ _130_/A_N _114_/B vssd1 vssd1 vccd1 vccd1 _202_/D sky130_fd_sc_hd__and2b_1
XFILLER_0_48_209 vssd1 vssd1 vccd1 vccd1 sky130_ef_sc_hd__decap_12
XFILLER_0_12_301 vssd1 vssd1 vccd1 vccd1 sky130_fd_sc_hd__decap_6
XFILLER_0_16_139 vssd1 vssd1 vccd1 vccd1 sky130_fd_sc_hd__fill_1
XFILLER_0_34_3 vssd1 vssd1 vccd1 vccd1 sky130_fd_sc_hd__decap_4
XFILLER_0_30_153 vssd1 vssd1 vccd1 vccd1 sky130_ef_sc_hd__decap_12
XFILLER_0_15_161 vssd1 vssd1 vccd1 vccd1 sky130_fd_sc_hd__decap_6
Xhold30 hold30/A vssd1 vssd1 vccd1 vccd1 la_data_out[17] sky130_fd_sc_hd__buf_12
Xhold63 hold63/A vssd1 vssd1 vccd1 vccd1 _121_/B sky130_fd_sc_hd__dlygate4sd3_1
XFILLER_0_30_197 vssd1 vssd1 vccd1 vccd1 sky130_ef_sc_hd__decap_12
Xhold74 hold74/A vssd1 vssd1 vccd1 vccd1 la_data_out[66] sky130_fd_sc_hd__buf_12
Xhold41 hold41/A vssd1 vssd1 vccd1 vccd1 _102_/B sky130_fd_sc_hd__dlygate4sd3_1
Xhold52 hold52/A vssd1 vssd1 vccd1 vccd1 la_data_out[41] sky130_fd_sc_hd__buf_12
Xclkbuf_3_7__f_wb_clk_i clkbuf_0_wb_clk_i/X vssd1 vssd1 vccd1 vccd1 _218_/CLK sky130_fd_sc_hd__clkbuf_16
Xhold96 hold96/A vssd1 vssd1 vccd1 vccd1 la_data_out[35] sky130_fd_sc_hd__buf_12
Xhold85 hold85/A vssd1 vssd1 vccd1 vccd1 _138_/B sky130_fd_sc_hd__dlygate4sd3_1
XFILLER_0_38_253 vssd1 vssd1 vccd1 vccd1 sky130_ef_sc_hd__decap_12
XTAP_348 vssd1 vccd1 sky130_fd_sc_hd__tapvpwrvgnd_1
XTAP_337 vssd1 vccd1 sky130_fd_sc_hd__tapvpwrvgnd_1
XTAP_326 vssd1 vccd1 sky130_fd_sc_hd__tapvpwrvgnd_1
XTAP_315 vssd1 vccd1 sky130_fd_sc_hd__tapvpwrvgnd_1
XTAP_304 vssd1 vccd1 sky130_fd_sc_hd__tapvpwrvgnd_1
XTAP_359 vssd1 vccd1 sky130_fd_sc_hd__tapvpwrvgnd_1
XFILLER_0_20_9 vssd1 vssd1 vccd1 vccd1 sky130_fd_sc_hd__fill_1
XFILLER_0_32_61 vssd1 vssd1 vccd1 vccd1 sky130_ef_sc_hd__decap_12
XFILLER_0_16_73 vssd1 vssd1 vccd1 vccd1 sky130_fd_sc_hd__decap_8
XFILLER_0_44_289 vssd1 vssd1 vccd1 vccd1 sky130_fd_sc_hd__decap_3
XFILLER_0_44_245 vssd1 vssd1 vccd1 vccd1 sky130_fd_sc_hd__decap_6
XFILLER_0_12_153 vssd1 vssd1 vccd1 vccd1 sky130_ef_sc_hd__decap_12
XFILLER_0_12_197 vssd1 vssd1 vccd1 vccd1 sky130_fd_sc_hd__decap_4
XFILLER_0_35_223 vssd1 vssd1 vccd1 vccd1 sky130_fd_sc_hd__fill_1
Xoutput7 output7/A vssd1 vssd1 vccd1 vccd1 hold16/A sky130_fd_sc_hd__buf_6
Xoutput20 hold310/X vssd1 vssd1 vccd1 vccd1 hold114/A sky130_fd_sc_hd__buf_6
Xoutput53 hold246/X vssd1 vssd1 vccd1 vccd1 hold66/A sky130_fd_sc_hd__buf_6
Xoutput75 hold200/X vssd1 vssd1 vccd1 vccd1 hold120/A sky130_fd_sc_hd__buf_6
Xoutput64 hold264/X vssd1 vssd1 vccd1 vccd1 hold74/A sky130_fd_sc_hd__buf_6
Xoutput31 hold318/X vssd1 vssd1 vccd1 vccd1 hold130/A sky130_fd_sc_hd__buf_6
Xoutput42 hold188/X vssd1 vssd1 vccd1 vccd1 hold44/A sky130_fd_sc_hd__buf_6
Xoutput86 hold212/X vssd1 vssd1 vccd1 vccd1 hold10/A sky130_fd_sc_hd__buf_6
XFILLER_0_41_237 vssd1 vssd1 vccd1 vccd1 sky130_ef_sc_hd__decap_12
XFILLER_0_26_289 vssd1 vssd1 vccd1 vccd1 sky130_ef_sc_hd__decap_12
XTAP_145 vssd1 vccd1 sky130_fd_sc_hd__tapvpwrvgnd_1
XTAP_134 vssd1 vccd1 sky130_fd_sc_hd__tapvpwrvgnd_1
XTAP_123 vssd1 vccd1 sky130_fd_sc_hd__tapvpwrvgnd_1
XTAP_112 vssd1 vccd1 sky130_fd_sc_hd__tapvpwrvgnd_1
XTAP_156 vssd1 vccd1 sky130_fd_sc_hd__tapvpwrvgnd_1
XTAP_167 vssd1 vccd1 sky130_fd_sc_hd__tapvpwrvgnd_1
XTAP_178 vssd1 vccd1 sky130_fd_sc_hd__tapvpwrvgnd_1
XTAP_189 vssd1 vccd1 sky130_fd_sc_hd__tapvpwrvgnd_1
XFILLER_0_43_93 vssd1 vssd1 vccd1 vccd1 sky130_ef_sc_hd__decap_12
Xhold330 _100_/B vssd1 vssd1 vccd1 vccd1 hold330/X sky130_fd_sc_hd__dlygate4sd3_1
Xhold341 _239_/Q vssd1 vssd1 vccd1 vccd1 hold341/X sky130_fd_sc_hd__dlygate4sd3_1
Xhold352 _163_/B vssd1 vssd1 vccd1 vccd1 hold352/X sky130_fd_sc_hd__buf_1
XFILLER_0_23_204 vssd1 vssd1 vccd1 vccd1 sky130_fd_sc_hd__fill_2
XFILLER_0_23_237 vssd1 vssd1 vccd1 vccd1 sky130_ef_sc_hd__decap_12
XFILLER_0_48_38 vssd1 vssd1 vccd1 vccd1 sky130_fd_sc_hd__decap_6
XFILLER_0_48_27 vssd1 vssd1 vccd1 vccd1 sky130_fd_sc_hd__fill_1
XFILLER_0_31_281 vssd1 vssd1 vccd1 vccd1 sky130_fd_sc_hd__fill_2
XFILLER_0_54_92 vssd1 vssd1 vccd1 vccd1 sky130_fd_sc_hd__fill_2
XFILLER_0_49_167 vssd1 vssd1 vccd1 vccd1 sky130_fd_sc_hd__fill_1
Xhold193 _185_/Q vssd1 vssd1 vccd1 vccd1 hold89/A sky130_fd_sc_hd__dlygate4sd3_1
Xhold160 hold160/A vssd1 vssd1 vccd1 vccd1 la_data_out[69] sky130_fd_sc_hd__buf_12
XFILLER_0_20_218 vssd1 vssd1 vccd1 vccd1 sky130_ef_sc_hd__decap_12
Xhold182 _116_/B vssd1 vssd1 vccd1 vccd1 hold182/X sky130_fd_sc_hd__dlygate4sd3_1
XANTENNA__165__A_N _165_/A_N vssd1 vssd1 vccd1 vccd1 sky130_fd_sc_hd__diode_2
Xhold171 hold345/X vssd1 vssd1 vccd1 vccd1 _164_/B sky130_fd_sc_hd__dlygate4sd3_1
XFILLER_0_40_61 vssd1 vssd1 vccd1 vccd1 sky130_ef_sc_hd__decap_12
XFILLER_0_6_245 vssd1 vssd1 vccd1 vccd1 sky130_fd_sc_hd__decap_6
XFILLER_0_10_251 vssd1 vssd1 vccd1 vccd1 sky130_fd_sc_hd__fill_1
X_130_ _130_/A_N _130_/B vssd1 vssd1 vccd1 vccd1 _218_/D sky130_fd_sc_hd__and2b_1
XFILLER_0_37_137 vssd1 vssd1 vccd1 vccd1 sky130_ef_sc_hd__decap_12
XFILLER_0_45_181 vssd1 vssd1 vccd1 vccd1 sky130_ef_sc_hd__decap_12
XANTENNA_clkbuf_3_5__f_wb_clk_i_A clkbuf_0_wb_clk_i/X vssd1 vssd1 vccd1 vccd1 sky130_fd_sc_hd__diode_2
X_259_ _260_/CLK _259_/D vssd1 vssd1 vccd1 vccd1 _259_/Q sky130_fd_sc_hd__dfxtp_1
XFILLER_0_51_195 vssd1 vssd1 vccd1 vccd1 sky130_ef_sc_hd__decap_12
XFILLER_0_51_151 vssd1 vssd1 vccd1 vccd1 sky130_fd_sc_hd__fill_2
XFILLER_0_50_9 vssd1 vssd1 vccd1 vccd1 sky130_fd_sc_hd__fill_1
XFILLER_0_10_97 vssd1 vssd1 vccd1 vccd1 sky130_ef_sc_hd__decap_12
XFILLER_0_19_137 vssd1 vssd1 vccd1 vccd1 sky130_ef_sc_hd__decap_12
XFILLER_0_42_195 vssd1 vssd1 vccd1 vccd1 sky130_fd_sc_hd__fill_1
XFILLER_0_27_181 vssd1 vssd1 vccd1 vccd1 sky130_ef_sc_hd__decap_12
Xclkbuf_3_6__f_wb_clk_i clkbuf_0_wb_clk_i/X vssd1 vssd1 vccd1 vccd1 _250_/CLK sky130_fd_sc_hd__clkbuf_16
X_113_ _164_/A_N _113_/B vssd1 vssd1 vccd1 vccd1 _201_/D sky130_fd_sc_hd__and2b_1
XFILLER_0_21_346 vssd1 vssd1 vccd1 vccd1 sky130_fd_sc_hd__decap_6
XFILLER_0_21_41 vssd1 vssd1 vccd1 vccd1 sky130_fd_sc_hd__fill_2
XFILLER_0_24_195 vssd1 vssd1 vccd1 vccd1 sky130_fd_sc_hd__fill_1
XFILLER_0_27_3 vssd1 vssd1 vccd1 vccd1 sky130_fd_sc_hd__decap_4
XFILLER_0_30_165 vssd1 vssd1 vccd1 vccd1 sky130_ef_sc_hd__decap_12
XFILLER_0_30_121 vssd1 vssd1 vccd1 vccd1 sky130_ef_sc_hd__decap_12
Xhold20 hold20/A vssd1 vssd1 vccd1 vccd1 la_data_out[16] sky130_fd_sc_hd__buf_12
Xhold97 hold97/A vssd1 vssd1 vccd1 vccd1 _098_/B sky130_fd_sc_hd__dlygate4sd3_1
Xhold64 hold64/A vssd1 vssd1 vccd1 vccd1 la_data_out[50] sky130_fd_sc_hd__buf_12
Xhold42 hold42/A vssd1 vssd1 vccd1 vccd1 la_data_out[31] sky130_fd_sc_hd__buf_12
Xhold86 hold86/A vssd1 vssd1 vccd1 vccd1 la_data_out[67] sky130_fd_sc_hd__buf_12
Xhold31 hold31/A vssd1 vssd1 vccd1 vccd1 _116_/B sky130_fd_sc_hd__dlygate4sd3_1
Xhold53 hold53/A vssd1 vssd1 vccd1 vccd1 _118_/B sky130_fd_sc_hd__dlygate4sd3_1
Xhold75 hold75/A vssd1 vssd1 vccd1 vccd1 _119_/B sky130_fd_sc_hd__dlygate4sd3_1
XFILLER_0_38_265 vssd1 vssd1 vccd1 vccd1 sky130_fd_sc_hd__decap_4
XFILLER_0_38_221 vssd1 vssd1 vccd1 vccd1 sky130_ef_sc_hd__decap_12
XFILLER_0_53_279 vssd1 vssd1 vccd1 vccd1 sky130_fd_sc_hd__fill_1
XTAP_349 vssd1 vccd1 sky130_fd_sc_hd__tapvpwrvgnd_1
XTAP_338 vssd1 vccd1 sky130_fd_sc_hd__tapvpwrvgnd_1
XTAP_327 vssd1 vccd1 sky130_fd_sc_hd__tapvpwrvgnd_1
XTAP_316 vssd1 vccd1 sky130_fd_sc_hd__tapvpwrvgnd_1
XTAP_305 vssd1 vccd1 sky130_fd_sc_hd__tapvpwrvgnd_1
XFILLER_0_16_85 vssd1 vssd1 vccd1 vccd1 sky130_ef_sc_hd__decap_12
XFILLER_0_32_73 vssd1 vssd1 vccd1 vccd1 sky130_fd_sc_hd__decap_8
XFILLER_0_12_121 vssd1 vssd1 vccd1 vccd1 sky130_ef_sc_hd__decap_12
XFILLER_0_12_165 vssd1 vssd1 vccd1 vccd1 sky130_ef_sc_hd__decap_12
XFILLER_0_50_249 vssd1 vssd1 vccd1 vccd1 sky130_fd_sc_hd__fill_1
XFILLER_0_35_279 vssd1 vssd1 vccd1 vccd1 sky130_fd_sc_hd__fill_1
XFILLER_0_7_181 vssd1 vssd1 vccd1 vccd1 sky130_ef_sc_hd__decap_12
Xoutput8 output8/A vssd1 vssd1 vccd1 vccd1 hold24/A sky130_fd_sc_hd__buf_6
Xoutput21 hold274/X vssd1 vssd1 vccd1 vccd1 hold98/A sky130_fd_sc_hd__buf_6
Xoutput10 hold228/X vssd1 vssd1 vccd1 vccd1 hold30/A sky130_fd_sc_hd__buf_6
Xoutput54 hold290/X vssd1 vssd1 vccd1 vccd1 hold104/A sky130_fd_sc_hd__buf_6
Xoutput76 hold286/X vssd1 vssd1 vccd1 vccd1 hold138/A sky130_fd_sc_hd__buf_6
Xoutput65 hold236/X vssd1 vssd1 vccd1 vccd1 hold86/A sky130_fd_sc_hd__buf_6
Xoutput32 hold314/X vssd1 vssd1 vccd1 vccd1 hold134/A sky130_fd_sc_hd__buf_6
Xoutput87 hold284/X vssd1 vssd1 vccd1 vccd1 hold142/A sky130_fd_sc_hd__buf_6
Xoutput43 hold220/X vssd1 vssd1 vccd1 vccd1 hold54/A sky130_fd_sc_hd__buf_6
XFILLER_0_5_107 vssd1 vssd1 vccd1 vccd1 sky130_fd_sc_hd__decap_4
XFILLER_0_26_224 vssd1 vssd1 vccd1 vccd1 sky130_ef_sc_hd__decap_12
XFILLER_0_41_249 vssd1 vssd1 vccd1 vccd1 sky130_ef_sc_hd__decap_12
XFILLER_0_41_205 vssd1 vssd1 vccd1 vccd1 sky130_ef_sc_hd__decap_12
XFILLER_0_1_335 vssd1 vssd1 vccd1 vccd1 sky130_fd_sc_hd__fill_1
XTAP_146 vssd1 vccd1 sky130_fd_sc_hd__tapvpwrvgnd_1
XTAP_135 vssd1 vccd1 sky130_fd_sc_hd__tapvpwrvgnd_1
XTAP_113 vssd1 vccd1 sky130_fd_sc_hd__tapvpwrvgnd_1
XTAP_124 vssd1 vccd1 sky130_fd_sc_hd__tapvpwrvgnd_1
XTAP_157 vssd1 vccd1 sky130_fd_sc_hd__tapvpwrvgnd_1
XTAP_168 vssd1 vccd1 sky130_fd_sc_hd__tapvpwrvgnd_1
XTAP_179 vssd1 vccd1 sky130_fd_sc_hd__tapvpwrvgnd_1
XFILLER_0_27_51 vssd1 vssd1 vccd1 vccd1 sky130_fd_sc_hd__decap_4
XFILLER_0_17_279 vssd1 vssd1 vccd1 vccd1 sky130_fd_sc_hd__fill_1
Xhold320 _093_/B vssd1 vssd1 vccd1 vccd1 hold320/X sky130_fd_sc_hd__dlygate4sd3_1
Xhold331 _257_/Q vssd1 vssd1 vccd1 vccd1 hold331/X sky130_fd_sc_hd__dlygate4sd3_1
Xhold342 _150_/B vssd1 vssd1 vccd1 vccd1 hold342/X sky130_fd_sc_hd__dlygate4sd3_1
XFILLER_0_4_162 vssd1 vssd1 vccd1 vccd1 sky130_fd_sc_hd__fill_1
Xhold353 _220_/Q vssd1 vssd1 vccd1 vccd1 hold353/X sky130_fd_sc_hd__dlygate4sd3_1
XANTENNA__094__A_N _162_/A_N vssd1 vssd1 vccd1 vccd1 sky130_fd_sc_hd__diode_2
XFILLER_0_23_249 vssd1 vssd1 vccd1 vccd1 sky130_ef_sc_hd__decap_12
XFILLER_0_3_19 vssd1 vssd1 vccd1 vccd1 sky130_ef_sc_hd__decap_12
XFILLER_0_1_121 vssd1 vssd1 vccd1 vccd1 sky130_fd_sc_hd__fill_1
XFILLER_0_1_187 vssd1 vssd1 vccd1 vccd1 sky130_ef_sc_hd__decap_12
XFILLER_0_38_83 vssd1 vssd1 vccd1 vccd1 sky130_fd_sc_hd__fill_1
XFILLER_0_49_113 vssd1 vssd1 vccd1 vccd1 sky130_ef_sc_hd__decap_12
XFILLER_0_37_319 vssd1 vssd1 vccd1 vccd1 sky130_fd_sc_hd__fill_1
XFILLER_0_13_260 vssd1 vssd1 vccd1 vccd1 sky130_ef_sc_hd__decap_12
Xhold150 output2/X vssd1 vssd1 vccd1 vccd1 la_data_out[0] sky130_fd_sc_hd__buf_12
Xhold194 _096_/B vssd1 vssd1 vccd1 vccd1 hold194/X sky130_fd_sc_hd__dlygate4sd3_1
Xhold183 _213_/Q vssd1 vssd1 vccd1 vccd1 hold21/A sky130_fd_sc_hd__dlygate4sd3_1
Xhold161 hold341/X vssd1 vssd1 vccd1 vccd1 _150_/B sky130_fd_sc_hd__dlygate4sd3_1
Xhold172 hold172/A vssd1 vssd1 vccd1 vccd1 la_data_out[5] sky130_fd_sc_hd__buf_12
XFILLER_0_50_29 vssd1 vssd1 vccd1 vccd1 sky130_fd_sc_hd__decap_6
XFILLER_0_36_352 vssd1 vssd1 vccd1 vccd1 sky130_fd_sc_hd__fill_1
XFILLER_0_24_85 vssd1 vssd1 vccd1 vccd1 sky130_ef_sc_hd__decap_12
XFILLER_0_40_73 vssd1 vssd1 vccd1 vccd1 sky130_fd_sc_hd__decap_8
XFILLER_0_6_257 vssd1 vssd1 vccd1 vccd1 sky130_fd_sc_hd__fill_1
Xclkbuf_3_5__f_wb_clk_i clkbuf_0_wb_clk_i/X vssd1 vssd1 vccd1 vccd1 _208_/CLK sky130_fd_sc_hd__clkbuf_16
XFILLER_0_37_149 vssd1 vssd1 vccd1 vccd1 sky130_ef_sc_hd__decap_12
XFILLER_0_37_105 vssd1 vssd1 vccd1 vccd1 sky130_fd_sc_hd__decap_6
XFILLER_0_45_193 vssd1 vssd1 vccd1 vccd1 sky130_ef_sc_hd__decap_12
XANTENNA__132__A_N _167_/A_N vssd1 vssd1 vccd1 vccd1 sky130_fd_sc_hd__diode_2
X_258_ _260_/CLK _258_/D vssd1 vssd1 vccd1 vccd1 _258_/Q sky130_fd_sc_hd__dfxtp_1
X_189_ _250_/CLK _189_/D vssd1 vssd1 vccd1 vccd1 _189_/Q sky130_fd_sc_hd__dfxtp_1
XFILLER_0_10_43 vssd1 vssd1 vccd1 vccd1 sky130_fd_sc_hd__fill_2
XANTENNA__155__A_N _167_/A_N vssd1 vssd1 vccd1 vccd1 sky130_fd_sc_hd__diode_2
XFILLER_0_19_105 vssd1 vssd1 vccd1 vccd1 sky130_fd_sc_hd__decap_6
XFILLER_0_19_149 vssd1 vssd1 vccd1 vccd1 sky130_ef_sc_hd__decap_12
XFILLER_0_42_141 vssd1 vssd1 vccd1 vccd1 sky130_ef_sc_hd__decap_12
XFILLER_0_27_193 vssd1 vssd1 vccd1 vccd1 sky130_ef_sc_hd__decap_12
X_112_ _164_/A_N _112_/B vssd1 vssd1 vccd1 vccd1 _200_/D sky130_fd_sc_hd__and2b_1
XFILLER_0_21_53 vssd1 vssd1 vccd1 vccd1 sky130_fd_sc_hd__decap_3
XFILLER_0_24_141 vssd1 vssd1 vccd1 vccd1 sky130_ef_sc_hd__decap_12
XFILLER_0_46_83 vssd1 vssd1 vccd1 vccd1 sky130_fd_sc_hd__fill_1
XFILLER_0_1_63 vssd1 vssd1 vccd1 vccd1 sky130_fd_sc_hd__fill_1
XFILLER_0_47_277 vssd1 vssd1 vccd1 vccd1 sky130_fd_sc_hd__fill_1
XFILLER_0_30_177 vssd1 vssd1 vccd1 vccd1 sky130_fd_sc_hd__decap_6
XFILLER_0_30_133 vssd1 vssd1 vccd1 vccd1 sky130_fd_sc_hd__decap_6
Xhold87 hold87/A vssd1 vssd1 vccd1 vccd1 _092_/B sky130_fd_sc_hd__dlygate4sd3_1
Xhold98 hold98/A vssd1 vssd1 vccd1 vccd1 la_data_out[27] sky130_fd_sc_hd__buf_12
Xhold65 hold65/A vssd1 vssd1 vccd1 vccd1 _127_/B sky130_fd_sc_hd__dlygate4sd3_1
Xhold21 hold21/A vssd1 vssd1 vccd1 vccd1 _124_/B sky130_fd_sc_hd__dlygate4sd3_1
Xhold10 hold10/A vssd1 vssd1 vccd1 vccd1 la_data_out[86] sky130_fd_sc_hd__buf_12
Xhold32 hold32/A vssd1 vssd1 vccd1 vccd1 la_data_out[45] sky130_fd_sc_hd__buf_12
Xhold43 hold43/A vssd1 vssd1 vccd1 vccd1 _117_/B sky130_fd_sc_hd__dlygate4sd3_1
Xhold54 hold54/A vssd1 vssd1 vccd1 vccd1 la_data_out[47] sky130_fd_sc_hd__buf_12
Xhold76 hold76/A vssd1 vssd1 vccd1 vccd1 la_data_out[48] sky130_fd_sc_hd__buf_12
XFILLER_0_38_233 vssd1 vssd1 vccd1 vccd1 sky130_ef_sc_hd__decap_12
XFILLER_0_53_225 vssd1 vssd1 vccd1 vccd1 sky130_fd_sc_hd__decap_3
XFILLER_0_21_111 vssd1 vssd1 vccd1 vccd1 sky130_fd_sc_hd__fill_1
XTAP_339 vssd1 vccd1 sky130_fd_sc_hd__tapvpwrvgnd_1
XTAP_328 vssd1 vccd1 sky130_fd_sc_hd__tapvpwrvgnd_1
XTAP_317 vssd1 vccd1 sky130_fd_sc_hd__tapvpwrvgnd_1
XTAP_306 vssd1 vccd1 sky130_fd_sc_hd__tapvpwrvgnd_1
XFILLER_0_16_97 vssd1 vssd1 vccd1 vccd1 sky130_ef_sc_hd__decap_12
XFILLER_0_32_85 vssd1 vssd1 vccd1 vccd1 sky130_ef_sc_hd__decap_12
XFILLER_0_12_133 vssd1 vssd1 vccd1 vccd1 sky130_fd_sc_hd__decap_6
XFILLER_0_12_177 vssd1 vssd1 vccd1 vccd1 sky130_ef_sc_hd__decap_12
XFILLER_0_35_225 vssd1 vssd1 vccd1 vccd1 sky130_ef_sc_hd__decap_12
XFILLER_0_7_193 vssd1 vssd1 vccd1 vccd1 sky130_ef_sc_hd__decap_12
Xoutput11 hold234/X vssd1 vssd1 vccd1 vccd1 hold26/A sky130_fd_sc_hd__buf_6
Xoutput9 output9/A vssd1 vssd1 vccd1 vccd1 hold20/A sky130_fd_sc_hd__buf_6
Xoutput55 hold306/X vssd1 vssd1 vccd1 vccd1 hold94/A sky130_fd_sc_hd__buf_6
Xoutput22 hold316/X vssd1 vssd1 vccd1 vccd1 hold112/A sky130_fd_sc_hd__buf_6
Xoutput77 hold296/X vssd1 vssd1 vccd1 vccd1 hold132/A sky130_fd_sc_hd__buf_6
Xoutput33 hold226/X vssd1 vssd1 vccd1 vccd1 hold92/A sky130_fd_sc_hd__buf_6
Xoutput88 hold348/X vssd1 vssd1 vccd1 vccd1 hold170/A sky130_fd_sc_hd__buf_6
Xoutput66 hold298/X vssd1 vssd1 vccd1 vccd1 hold108/A sky130_fd_sc_hd__buf_6
XFILLER_0_9_3 vssd1 vssd1 vccd1 vccd1 sky130_fd_sc_hd__decap_6
Xoutput44 hold260/X vssd1 vssd1 vccd1 vccd1 hold76/A sky130_fd_sc_hd__buf_6
XFILLER_0_26_236 vssd1 vssd1 vccd1 vccd1 sky130_ef_sc_hd__decap_12
XFILLER_0_41_217 vssd1 vssd1 vccd1 vccd1 sky130_fd_sc_hd__decap_6
XTAP_114 vssd1 vccd1 sky130_fd_sc_hd__tapvpwrvgnd_1
XTAP_147 vssd1 vccd1 sky130_fd_sc_hd__tapvpwrvgnd_1
XTAP_136 vssd1 vccd1 sky130_fd_sc_hd__tapvpwrvgnd_1
XTAP_125 vssd1 vccd1 sky130_fd_sc_hd__tapvpwrvgnd_1
XTAP_158 vssd1 vccd1 sky130_fd_sc_hd__tapvpwrvgnd_1
XTAP_169 vssd1 vccd1 sky130_fd_sc_hd__tapvpwrvgnd_1
XANTENNA__189__CLK _250_/CLK vssd1 vssd1 vccd1 vccd1 sky130_fd_sc_hd__diode_2
Xhold310 _097_/B vssd1 vssd1 vccd1 vccd1 hold310/X sky130_fd_sc_hd__dlygate4sd3_1
XFILLER_0_17_225 vssd1 vssd1 vccd1 vccd1 sky130_ef_sc_hd__decap_12
Xhold332 _168_/B vssd1 vssd1 vccd1 vccd1 hold332/X sky130_fd_sc_hd__dlygate4sd3_1
Xhold321 _240_/Q vssd1 vssd1 vccd1 vccd1 hold321/X sky130_fd_sc_hd__dlygate4sd3_1
Xhold343 _229_/Q vssd1 vssd1 vccd1 vccd1 hold343/X sky130_fd_sc_hd__dlygate4sd3_1
XFILLER_0_31_261 vssd1 vssd1 vccd1 vccd1 sky130_fd_sc_hd__decap_3
XFILLER_0_1_177 vssd1 vssd1 vccd1 vccd1 sky130_fd_sc_hd__fill_1
XFILLER_0_1_199 vssd1 vssd1 vccd1 vccd1 sky130_fd_sc_hd__fill_1
Xclkbuf_3_4__f_wb_clk_i clkbuf_0_wb_clk_i/X vssd1 vssd1 vccd1 vccd1 _252_/CLK sky130_fd_sc_hd__clkbuf_16
XFILLER_0_49_169 vssd1 vssd1 vccd1 vccd1 sky130_ef_sc_hd__decap_12
XFILLER_0_49_125 vssd1 vssd1 vccd1 vccd1 sky130_ef_sc_hd__decap_12
XFILLER_0_9_222 vssd1 vssd1 vccd1 vccd1 sky130_fd_sc_hd__fill_2
Xhold140 output5/X vssd1 vssd1 vccd1 vccd1 la_data_out[12] sky130_fd_sc_hd__buf_12
Xhold162 hold162/A vssd1 vssd1 vccd1 vccd1 la_data_out[79] sky130_fd_sc_hd__buf_12
Xhold151 hold331/X vssd1 vssd1 vccd1 vccd1 _168_/B sky130_fd_sc_hd__dlygate4sd3_1
XFILLER_0_13_272 vssd1 vssd1 vccd1 vccd1 sky130_fd_sc_hd__decap_8
Xhold184 _124_/B vssd1 vssd1 vccd1 vccd1 hold184/X sky130_fd_sc_hd__dlygate4sd3_1
Xhold195 _219_/Q vssd1 vssd1 vccd1 vccd1 hold195/X sky130_fd_sc_hd__dlygate4sd3_1
Xhold173 hold351/X vssd1 vssd1 vccd1 vccd1 _163_/B sky130_fd_sc_hd__dlygate4sd3_1
XFILLER_0_28_309 vssd1 vssd1 vccd1 vccd1 sky130_fd_sc_hd__decap_8
XFILLER_0_46_139 vssd1 vssd1 vccd1 vccd1 sky130_fd_sc_hd__fill_1
XFILLER_0_24_97 vssd1 vssd1 vccd1 vccd1 sky130_ef_sc_hd__decap_12
XFILLER_0_54_161 vssd1 vssd1 vccd1 vccd1 sky130_fd_sc_hd__decap_8
XFILLER_0_40_85 vssd1 vssd1 vccd1 vccd1 sky130_ef_sc_hd__decap_12
XFILLER_0_49_72 vssd1 vssd1 vccd1 vccd1 sky130_ef_sc_hd__decap_12
XFILLER_0_4_85 vssd1 vssd1 vccd1 vccd1 sky130_fd_sc_hd__fill_2
XFILLER_0_4_41 vssd1 vssd1 vccd1 vccd1 sky130_ef_sc_hd__decap_12
XFILLER_0_10_253 vssd1 vssd1 vccd1 vccd1 sky130_ef_sc_hd__decap_12
XFILLER_0_10_297 vssd1 vssd1 vccd1 vccd1 sky130_fd_sc_hd__decap_3
XFILLER_0_45_161 vssd1 vssd1 vccd1 vccd1 sky130_fd_sc_hd__decap_6
XFILLER_0_28_139 vssd1 vssd1 vccd1 vccd1 sky130_fd_sc_hd__fill_1
X_188_ _218_/CLK _188_/D vssd1 vssd1 vccd1 vccd1 _188_/Q sky130_fd_sc_hd__dfxtp_1
X_257_ _260_/CLK _257_/D vssd1 vssd1 vccd1 vccd1 _257_/Q sky130_fd_sc_hd__dfxtp_1
XFILLER_0_51_131 vssd1 vssd1 vccd1 vccd1 sky130_fd_sc_hd__fill_2
Xfanout90 _165_/A_N vssd1 vssd1 vccd1 vccd1 _167_/A_N sky130_fd_sc_hd__clkbuf_4
XFILLER_0_24_301 vssd1 vssd1 vccd1 vccd1 sky130_fd_sc_hd__decap_6
XFILLER_0_19_53 vssd1 vssd1 vccd1 vccd1 sky130_fd_sc_hd__decap_3
XFILLER_0_35_41 vssd1 vssd1 vccd1 vccd1 sky130_ef_sc_hd__decap_12
XFILLER_0_51_51 vssd1 vssd1 vccd1 vccd1 sky130_fd_sc_hd__decap_4
XFILLER_0_34_109 vssd1 vssd1 vccd1 vccd1 sky130_ef_sc_hd__decap_12
XFILLER_0_27_161 vssd1 vssd1 vccd1 vccd1 sky130_fd_sc_hd__decap_6
XFILLER_0_42_197 vssd1 vssd1 vccd1 vccd1 sky130_ef_sc_hd__decap_12
XFILLER_0_42_153 vssd1 vssd1 vccd1 vccd1 sky130_ef_sc_hd__decap_12
XFILLER_0_30_348 vssd1 vssd1 vccd1 vccd1 sky130_fd_sc_hd__decap_4
X_111_ _164_/A_N _111_/B vssd1 vssd1 vccd1 vccd1 _199_/D sky130_fd_sc_hd__and2b_1
XFILLER_0_8_309 vssd1 vssd1 vccd1 vccd1 sky130_fd_sc_hd__decap_4
XFILLER_0_16_109 vssd1 vssd1 vccd1 vccd1 sky130_ef_sc_hd__decap_12
XFILLER_0_12_315 vssd1 vssd1 vccd1 vccd1 sky130_fd_sc_hd__fill_1
XFILLER_0_12_348 vssd1 vssd1 vccd1 vccd1 sky130_fd_sc_hd__decap_4
XFILLER_0_24_153 vssd1 vssd1 vccd1 vccd1 sky130_ef_sc_hd__decap_12
XFILLER_0_24_197 vssd1 vssd1 vccd1 vccd1 sky130_ef_sc_hd__decap_12
XFILLER_0_47_223 vssd1 vssd1 vccd1 vccd1 sky130_fd_sc_hd__fill_1
XANTENNA__122__A_N _162_/A_N vssd1 vssd1 vccd1 vccd1 sky130_fd_sc_hd__diode_2
XFILLER_0_1_31 vssd1 vssd1 vccd1 vccd1 sky130_fd_sc_hd__decap_8
Xhold22 hold22/A vssd1 vssd1 vccd1 vccd1 la_data_out[53] sky130_fd_sc_hd__buf_12
Xhold11 hold11/A vssd1 vssd1 vccd1 vccd1 _152_/B sky130_fd_sc_hd__dlygate4sd3_1
Xhold88 hold88/A vssd1 vssd1 vccd1 vccd1 la_data_out[21] sky130_fd_sc_hd__buf_12
Xhold33 hold33/A vssd1 vssd1 vccd1 vccd1 _090_/B sky130_fd_sc_hd__dlygate4sd3_1
Xhold66 hold66/A vssd1 vssd1 vccd1 vccd1 la_data_out[56] sky130_fd_sc_hd__buf_12
Xhold55 hold55/A vssd1 vssd1 vccd1 vccd1 _123_/B sky130_fd_sc_hd__dlygate4sd3_1
Xhold77 hold77/A vssd1 vssd1 vccd1 vccd1 _133_/B sky130_fd_sc_hd__dlygate4sd3_1
Xhold99 hold99/A vssd1 vssd1 vccd1 vccd1 _104_/B sky130_fd_sc_hd__dlygate4sd3_1
Xhold44 hold44/A vssd1 vssd1 vccd1 vccd1 la_data_out[46] sky130_fd_sc_hd__buf_12
XFILLER_0_53_215 vssd1 vssd1 vccd1 vccd1 sky130_fd_sc_hd__fill_1
XFILLER_0_38_245 vssd1 vssd1 vccd1 vccd1 sky130_fd_sc_hd__decap_6
XFILLER_0_21_167 vssd1 vssd1 vccd1 vccd1 sky130_fd_sc_hd__fill_1
XTAP_329 vssd1 vccd1 sky130_fd_sc_hd__tapvpwrvgnd_1
XTAP_318 vssd1 vccd1 sky130_fd_sc_hd__tapvpwrvgnd_1
XTAP_307 vssd1 vccd1 sky130_fd_sc_hd__tapvpwrvgnd_1
XFILLER_0_29_223 vssd1 vssd1 vccd1 vccd1 sky130_fd_sc_hd__fill_1
XFILLER_0_32_97 vssd1 vssd1 vccd1 vccd1 sky130_ef_sc_hd__decap_12
XFILLER_0_8_139 vssd1 vssd1 vccd1 vccd1 sky130_fd_sc_hd__fill_1
XFILLER_0_12_189 vssd1 vssd1 vccd1 vccd1 sky130_fd_sc_hd__decap_6
XFILLER_0_32_3 vssd1 vssd1 vccd1 vccd1 sky130_fd_sc_hd__decap_4
XFILLER_0_35_237 vssd1 vssd1 vccd1 vccd1 sky130_ef_sc_hd__decap_12
Xoutput12 hold192/X vssd1 vssd1 vccd1 vccd1 hold34/A sky130_fd_sc_hd__buf_6
Xoutput23 hold330/X vssd1 vssd1 vccd1 vccd1 hold164/A sky130_fd_sc_hd__buf_6
XFILLER_0_43_281 vssd1 vssd1 vccd1 vccd1 sky130_ef_sc_hd__decap_12
Xoutput34 hold302/X vssd1 vssd1 vccd1 vccd1 hold126/A sky130_fd_sc_hd__buf_6
XFILLER_0_7_161 vssd1 vssd1 vccd1 vccd1 sky130_fd_sc_hd__decap_6
Xoutput56 hold196/X vssd1 vssd1 vccd1 vccd1 hold148/A sky130_fd_sc_hd__buf_6
Xoutput78 hold342/X vssd1 vssd1 vccd1 vccd1 hold162/A sky130_fd_sc_hd__buf_6
Xoutput89 hold332/X vssd1 vssd1 vccd1 vccd1 hold152/A sky130_fd_sc_hd__buf_6
Xoutput45 hold186/X vssd1 vssd1 vccd1 vccd1 hold36/A sky130_fd_sc_hd__buf_6
Xoutput67 hold344/X vssd1 vssd1 vccd1 vccd1 hold160/A sky130_fd_sc_hd__buf_6
XFILLER_0_26_248 vssd1 vssd1 vccd1 vccd1 sky130_fd_sc_hd__decap_4
XTAP_148 vssd1 vccd1 sky130_fd_sc_hd__tapvpwrvgnd_1
XTAP_137 vssd1 vccd1 sky130_fd_sc_hd__tapvpwrvgnd_1
XTAP_115 vssd1 vccd1 sky130_fd_sc_hd__tapvpwrvgnd_1
XTAP_126 vssd1 vccd1 sky130_fd_sc_hd__tapvpwrvgnd_1
Xclkbuf_3_3__f_wb_clk_i clkbuf_0_wb_clk_i/X vssd1 vssd1 vccd1 vccd1 _263_/CLK sky130_fd_sc_hd__clkbuf_16
XTAP_159 vssd1 vccd1 sky130_fd_sc_hd__tapvpwrvgnd_1
XFILLER_0_17_237 vssd1 vssd1 vccd1 vccd1 sky130_ef_sc_hd__decap_12
XFILLER_0_40_251 vssd1 vssd1 vccd1 vccd1 sky130_fd_sc_hd__fill_1
Xhold333 _250_/Q vssd1 vssd1 vccd1 vccd1 hold333/X sky130_fd_sc_hd__dlygate4sd3_1
Xhold300 _145_/B vssd1 vssd1 vccd1 vccd1 hold300/X sky130_fd_sc_hd__dlygate4sd3_1
Xhold311 _232_/Q vssd1 vssd1 vccd1 vccd1 hold311/X sky130_fd_sc_hd__dlygate4sd3_1
Xhold344 _140_/B vssd1 vssd1 vccd1 vccd1 hold344/X sky130_fd_sc_hd__dlygate4sd3_1
XFILLER_0_4_197 vssd1 vssd1 vccd1 vccd1 sky130_ef_sc_hd__decap_12
XFILLER_0_4_120 vssd1 vssd1 vccd1 vccd1 sky130_fd_sc_hd__fill_2
Xhold322 _151_/B vssd1 vssd1 vccd1 vccd1 hold322/X sky130_fd_sc_hd__dlygate4sd3_1
XFILLER_0_25_281 vssd1 vssd1 vccd1 vccd1 sky130_ef_sc_hd__decap_12
XFILLER_0_13_33 vssd1 vssd1 vccd1 vccd1 sky130_fd_sc_hd__fill_2