* NGSPICE file created from user_project_wrapper.ext - technology: sky130A

* Black-box entry subcircuit for execution_unit abstract view
.subckt execution_unit busy curr_PC[0] curr_PC[10] curr_PC[11] curr_PC[12] curr_PC[13]
+ curr_PC[14] curr_PC[15] curr_PC[16] curr_PC[17] curr_PC[18] curr_PC[19] curr_PC[1]
+ curr_PC[20] curr_PC[21] curr_PC[22] curr_PC[23] curr_PC[24] curr_PC[25] curr_PC[26]
+ curr_PC[27] curr_PC[2] curr_PC[3] curr_PC[4] curr_PC[5] curr_PC[6] curr_PC[7] curr_PC[8]
+ curr_PC[9] dest_idx[0] dest_idx[1] dest_idx[2] dest_idx[3] dest_idx[4] dest_idx[5]
+ dest_mask[0] dest_mask[1] dest_pred[0] dest_pred[1] dest_pred[2] dest_pred_val dest_val[0]
+ dest_val[10] dest_val[11] dest_val[12] dest_val[13] dest_val[14] dest_val[15] dest_val[16]
+ dest_val[17] dest_val[18] dest_val[19] dest_val[1] dest_val[20] dest_val[21] dest_val[22]
+ dest_val[23] dest_val[24] dest_val[25] dest_val[26] dest_val[27] dest_val[28] dest_val[29]
+ dest_val[2] dest_val[30] dest_val[31] dest_val[3] dest_val[4] dest_val[5] dest_val[6]
+ dest_val[7] dest_val[8] dest_val[9] instruction[0] instruction[10] instruction[11]
+ instruction[12] instruction[13] instruction[14] instruction[15] instruction[16]
+ instruction[17] instruction[18] instruction[19] instruction[1] instruction[20] instruction[21]
+ instruction[22] instruction[23] instruction[24] instruction[25] instruction[26]
+ instruction[27] instruction[28] instruction[29] instruction[2] instruction[30] instruction[31]
+ instruction[32] instruction[33] instruction[34] instruction[35] instruction[36]
+ instruction[37] instruction[38] instruction[39] instruction[3] instruction[40] instruction[41]
+ instruction[4] instruction[5] instruction[6] instruction[7] instruction[8] instruction[9]
+ int_return is_load is_store loadstore_address[0] loadstore_address[10] loadstore_address[11]
+ loadstore_address[12] loadstore_address[13] loadstore_address[14] loadstore_address[15]
+ loadstore_address[16] loadstore_address[17] loadstore_address[18] loadstore_address[19]
+ loadstore_address[1] loadstore_address[20] loadstore_address[21] loadstore_address[22]
+ loadstore_address[23] loadstore_address[24] loadstore_address[25] loadstore_address[26]
+ loadstore_address[27] loadstore_address[28] loadstore_address[29] loadstore_address[2]
+ loadstore_address[30] loadstore_address[31] loadstore_address[3] loadstore_address[4]
+ loadstore_address[5] loadstore_address[6] loadstore_address[7] loadstore_address[8]
+ loadstore_address[9] loadstore_dest[0] loadstore_dest[1] loadstore_dest[2] loadstore_dest[3]
+ loadstore_dest[4] loadstore_dest[5] loadstore_size[0] loadstore_size[1] new_PC[0]
+ new_PC[10] new_PC[11] new_PC[12] new_PC[13] new_PC[14] new_PC[15] new_PC[16] new_PC[17]
+ new_PC[18] new_PC[19] new_PC[1] new_PC[20] new_PC[21] new_PC[22] new_PC[23] new_PC[24]
+ new_PC[25] new_PC[26] new_PC[27] new_PC[2] new_PC[3] new_PC[4] new_PC[5] new_PC[6]
+ new_PC[7] new_PC[8] new_PC[9] pred_idx[0] pred_idx[1] pred_idx[2] pred_val reg1_idx[0]
+ reg1_idx[1] reg1_idx[2] reg1_idx[3] reg1_idx[4] reg1_idx[5] reg1_val[0] reg1_val[10]
+ reg1_val[11] reg1_val[12] reg1_val[13] reg1_val[14] reg1_val[15] reg1_val[16] reg1_val[17]
+ reg1_val[18] reg1_val[19] reg1_val[1] reg1_val[20] reg1_val[21] reg1_val[22] reg1_val[23]
+ reg1_val[24] reg1_val[25] reg1_val[26] reg1_val[27] reg1_val[28] reg1_val[29] reg1_val[2]
+ reg1_val[30] reg1_val[31] reg1_val[3] reg1_val[4] reg1_val[5] reg1_val[6] reg1_val[7]
+ reg1_val[8] reg1_val[9] reg2_idx[0] reg2_idx[1] reg2_idx[2] reg2_idx[3] reg2_idx[4]
+ reg2_idx[5] reg2_val[0] reg2_val[10] reg2_val[11] reg2_val[12] reg2_val[13] reg2_val[14]
+ reg2_val[15] reg2_val[16] reg2_val[17] reg2_val[18] reg2_val[19] reg2_val[1] reg2_val[20]
+ reg2_val[21] reg2_val[22] reg2_val[23] reg2_val[24] reg2_val[25] reg2_val[26] reg2_val[27]
+ reg2_val[28] reg2_val[29] reg2_val[2] reg2_val[30] reg2_val[31] reg2_val[3] reg2_val[4]
+ reg2_val[5] reg2_val[6] reg2_val[7] reg2_val[8] reg2_val[9] rst sign_extend take_branch
+ vccd1 vssd1 wb_clk_i
.ends

* Black-box entry subcircuit for icache abstract view
.subckt icache cache_entry[0] cache_entry[100] cache_entry[101] cache_entry[102] cache_entry[103]
+ cache_entry[104] cache_entry[105] cache_entry[106] cache_entry[107] cache_entry[108]
+ cache_entry[109] cache_entry[10] cache_entry[110] cache_entry[111] cache_entry[112]
+ cache_entry[113] cache_entry[114] cache_entry[115] cache_entry[116] cache_entry[117]
+ cache_entry[118] cache_entry[119] cache_entry[11] cache_entry[120] cache_entry[121]
+ cache_entry[122] cache_entry[123] cache_entry[124] cache_entry[125] cache_entry[126]
+ cache_entry[127] cache_entry[12] cache_entry[13] cache_entry[14] cache_entry[15]
+ cache_entry[16] cache_entry[17] cache_entry[18] cache_entry[19] cache_entry[1] cache_entry[20]
+ cache_entry[21] cache_entry[22] cache_entry[23] cache_entry[24] cache_entry[25]
+ cache_entry[26] cache_entry[27] cache_entry[28] cache_entry[29] cache_entry[2] cache_entry[30]
+ cache_entry[31] cache_entry[32] cache_entry[33] cache_entry[34] cache_entry[35]
+ cache_entry[36] cache_entry[37] cache_entry[38] cache_entry[39] cache_entry[3] cache_entry[40]
+ cache_entry[41] cache_entry[42] cache_entry[43] cache_entry[44] cache_entry[45]
+ cache_entry[46] cache_entry[47] cache_entry[48] cache_entry[49] cache_entry[4] cache_entry[50]
+ cache_entry[51] cache_entry[52] cache_entry[53] cache_entry[54] cache_entry[55]
+ cache_entry[56] cache_entry[57] cache_entry[58] cache_entry[59] cache_entry[5] cache_entry[60]
+ cache_entry[61] cache_entry[62] cache_entry[63] cache_entry[64] cache_entry[65]
+ cache_entry[66] cache_entry[67] cache_entry[68] cache_entry[69] cache_entry[6] cache_entry[70]
+ cache_entry[71] cache_entry[72] cache_entry[73] cache_entry[74] cache_entry[75]
+ cache_entry[76] cache_entry[77] cache_entry[78] cache_entry[79] cache_entry[7] cache_entry[80]
+ cache_entry[81] cache_entry[82] cache_entry[83] cache_entry[84] cache_entry[85]
+ cache_entry[86] cache_entry[87] cache_entry[88] cache_entry[89] cache_entry[8] cache_entry[90]
+ cache_entry[91] cache_entry[92] cache_entry[93] cache_entry[94] cache_entry[95]
+ cache_entry[96] cache_entry[97] cache_entry[98] cache_entry[99] cache_entry[9] cache_hit
+ curr_PC[0] curr_PC[10] curr_PC[11] curr_PC[12] curr_PC[13] curr_PC[14] curr_PC[15]
+ curr_PC[16] curr_PC[17] curr_PC[18] curr_PC[19] curr_PC[1] curr_PC[20] curr_PC[21]
+ curr_PC[22] curr_PC[23] curr_PC[24] curr_PC[25] curr_PC[26] curr_PC[27] curr_PC[2]
+ curr_PC[3] curr_PC[4] curr_PC[5] curr_PC[6] curr_PC[7] curr_PC[8] curr_PC[9] entry_valid
+ invalidate new_entry[0] new_entry[100] new_entry[101] new_entry[102] new_entry[103]
+ new_entry[104] new_entry[105] new_entry[106] new_entry[107] new_entry[108] new_entry[109]
+ new_entry[10] new_entry[110] new_entry[111] new_entry[112] new_entry[113] new_entry[114]
+ new_entry[115] new_entry[116] new_entry[117] new_entry[118] new_entry[119] new_entry[11]
+ new_entry[120] new_entry[121] new_entry[122] new_entry[123] new_entry[124] new_entry[125]
+ new_entry[126] new_entry[127] new_entry[12] new_entry[13] new_entry[14] new_entry[15]
+ new_entry[16] new_entry[17] new_entry[18] new_entry[19] new_entry[1] new_entry[20]
+ new_entry[21] new_entry[22] new_entry[23] new_entry[24] new_entry[25] new_entry[26]
+ new_entry[27] new_entry[28] new_entry[29] new_entry[2] new_entry[30] new_entry[31]
+ new_entry[32] new_entry[33] new_entry[34] new_entry[35] new_entry[36] new_entry[37]
+ new_entry[38] new_entry[39] new_entry[3] new_entry[40] new_entry[41] new_entry[42]
+ new_entry[43] new_entry[44] new_entry[45] new_entry[46] new_entry[47] new_entry[48]
+ new_entry[49] new_entry[4] new_entry[50] new_entry[51] new_entry[52] new_entry[53]
+ new_entry[54] new_entry[55] new_entry[56] new_entry[57] new_entry[58] new_entry[59]
+ new_entry[5] new_entry[60] new_entry[61] new_entry[62] new_entry[63] new_entry[64]
+ new_entry[65] new_entry[66] new_entry[67] new_entry[68] new_entry[69] new_entry[6]
+ new_entry[70] new_entry[71] new_entry[72] new_entry[73] new_entry[74] new_entry[75]
+ new_entry[76] new_entry[77] new_entry[78] new_entry[79] new_entry[7] new_entry[80]
+ new_entry[81] new_entry[82] new_entry[83] new_entry[84] new_entry[85] new_entry[86]
+ new_entry[87] new_entry[88] new_entry[89] new_entry[8] new_entry[90] new_entry[91]
+ new_entry[92] new_entry[93] new_entry[94] new_entry[95] new_entry[96] new_entry[97]
+ new_entry[98] new_entry[99] new_entry[9] rst vccd1 vssd1 wb_clk_i
.ends

* Black-box entry subcircuit for wrapped_8x305 abstract view
.subckt wrapped_8x305 custom_settings[0] custom_settings[1] io_in[0] io_in[10] io_in[11]
+ io_in[12] io_in[13] io_in[14] io_in[15] io_in[16] io_in[17] io_in[18] io_in[19]
+ io_in[1] io_in[20] io_in[21] io_in[22] io_in[23] io_in[24] io_in[25] io_in[26] io_in[27]
+ io_in[28] io_in[29] io_in[2] io_in[30] io_in[31] io_in[32] io_in[33] io_in[34] io_in[35]
+ io_in[3] io_in[4] io_in[5] io_in[6] io_in[7] io_in[8] io_in[9] io_oeb[0] io_oeb[1]
+ io_oeb[2] io_oeb[3] io_oeb[4] io_out[0] io_out[10] io_out[11] io_out[12] io_out[13]
+ io_out[14] io_out[15] io_out[16] io_out[17] io_out[18] io_out[19] io_out[1] io_out[20]
+ io_out[21] io_out[22] io_out[23] io_out[24] io_out[25] io_out[26] io_out[27] io_out[28]
+ io_out[29] io_out[2] io_out[30] io_out[31] io_out[32] io_out[33] io_out[34] io_out[35]
+ io_out[3] io_out[4] io_out[5] io_out[6] io_out[7] io_out[8] io_out[9] rst_n vccd1
+ vssd1 wb_clk_i
.ends

* Black-box entry subcircuit for scrapcpu abstract view
.subckt scrapcpu io_in[0] io_in[10] io_in[11] io_in[12] io_in[13] io_in[14] io_in[15]
+ io_in[16] io_in[17] io_in[18] io_in[19] io_in[1] io_in[20] io_in[21] io_in[22] io_in[23]
+ io_in[24] io_in[25] io_in[26] io_in[27] io_in[28] io_in[29] io_in[2] io_in[30] io_in[31]
+ io_in[32] io_in[33] io_in[34] io_in[35] io_in[3] io_in[4] io_in[5] io_in[6] io_in[7]
+ io_in[8] io_in[9] io_oeb[0] io_oeb[10] io_oeb[11] io_oeb[12] io_oeb[13] io_oeb[14]
+ io_oeb[15] io_oeb[16] io_oeb[17] io_oeb[18] io_oeb[19] io_oeb[1] io_oeb[20] io_oeb[21]
+ io_oeb[22] io_oeb[23] io_oeb[24] io_oeb[25] io_oeb[26] io_oeb[27] io_oeb[28] io_oeb[29]
+ io_oeb[2] io_oeb[30] io_oeb[31] io_oeb[32] io_oeb[33] io_oeb[34] io_oeb[35] io_oeb[3]
+ io_oeb[4] io_oeb[5] io_oeb[6] io_oeb[7] io_oeb[8] io_oeb[9] io_out[0] io_out[10]
+ io_out[11] io_out[12] io_out[13] io_out[14] io_out[15] io_out[16] io_out[17] io_out[18]
+ io_out[19] io_out[1] io_out[20] io_out[21] io_out[22] io_out[23] io_out[24] io_out[25]
+ io_out[26] io_out[27] io_out[28] io_out[29] io_out[2] io_out[30] io_out[31] io_out[32]
+ io_out[33] io_out[34] io_out[35] io_out[3] io_out[4] io_out[5] io_out[6] io_out[7]
+ io_out[8] io_out[9] rst_n vccd1 vssd1 wb_clk_i
.ends

* Black-box entry subcircuit for multiplexer abstract view
.subckt multiplexer cap_addr[0] cap_addr[1] cap_addr[2] cap_addr[3] cap_addr[4] cap_addr[5]
+ cap_addr[6] cap_addr[7] cap_addr[8] cap_io_in[0] cap_io_in[1] cap_io_in[2] cap_io_in[3]
+ cap_io_in[4] cap_io_in[5] cap_io_in[6] cap_io_in[7] cap_io_in[8] custom_settings[0]
+ custom_settings[10] custom_settings[11] custom_settings[12] custom_settings[13]
+ custom_settings[14] custom_settings[15] custom_settings[16] custom_settings[17]
+ custom_settings[18] custom_settings[19] custom_settings[1] custom_settings[20] custom_settings[21]
+ custom_settings[22] custom_settings[23] custom_settings[24] custom_settings[25]
+ custom_settings[26] custom_settings[27] custom_settings[28] custom_settings[29]
+ custom_settings[2] custom_settings[30] custom_settings[31] custom_settings[3] custom_settings[4]
+ custom_settings[5] custom_settings[6] custom_settings[7] custom_settings[8] custom_settings[9]
+ io_in_0 io_oeb[0] io_oeb[10] io_oeb[11] io_oeb[12] io_oeb[13] io_oeb[14] io_oeb[15]
+ io_oeb[16] io_oeb[17] io_oeb[18] io_oeb[19] io_oeb[1] io_oeb[20] io_oeb[21] io_oeb[22]
+ io_oeb[23] io_oeb[24] io_oeb[25] io_oeb[26] io_oeb[27] io_oeb[28] io_oeb[29] io_oeb[2]
+ io_oeb[30] io_oeb[31] io_oeb[32] io_oeb[33] io_oeb[34] io_oeb[35] io_oeb[36] io_oeb[37]
+ io_oeb[3] io_oeb[4] io_oeb[5] io_oeb[6] io_oeb[7] io_oeb[8] io_oeb[9] io_oeb_6502
+ io_oeb_8x305[0] io_oeb_8x305[1] io_oeb_8x305[2] io_oeb_8x305[3] io_oeb_8x305[4]
+ io_oeb_as1802 io_oeb_scrapcpu[0] io_oeb_scrapcpu[10] io_oeb_scrapcpu[11] io_oeb_scrapcpu[12]
+ io_oeb_scrapcpu[13] io_oeb_scrapcpu[14] io_oeb_scrapcpu[15] io_oeb_scrapcpu[16]
+ io_oeb_scrapcpu[17] io_oeb_scrapcpu[18] io_oeb_scrapcpu[19] io_oeb_scrapcpu[1] io_oeb_scrapcpu[20]
+ io_oeb_scrapcpu[21] io_oeb_scrapcpu[22] io_oeb_scrapcpu[23] io_oeb_scrapcpu[24]
+ io_oeb_scrapcpu[25] io_oeb_scrapcpu[26] io_oeb_scrapcpu[27] io_oeb_scrapcpu[28]
+ io_oeb_scrapcpu[29] io_oeb_scrapcpu[2] io_oeb_scrapcpu[30] io_oeb_scrapcpu[31] io_oeb_scrapcpu[32]
+ io_oeb_scrapcpu[33] io_oeb_scrapcpu[34] io_oeb_scrapcpu[35] io_oeb_scrapcpu[3] io_oeb_scrapcpu[4]
+ io_oeb_scrapcpu[5] io_oeb_scrapcpu[6] io_oeb_scrapcpu[7] io_oeb_scrapcpu[8] io_oeb_scrapcpu[9]
+ io_oeb_vliw[0] io_oeb_vliw[10] io_oeb_vliw[11] io_oeb_vliw[12] io_oeb_vliw[13] io_oeb_vliw[14]
+ io_oeb_vliw[15] io_oeb_vliw[16] io_oeb_vliw[17] io_oeb_vliw[18] io_oeb_vliw[19]
+ io_oeb_vliw[1] io_oeb_vliw[20] io_oeb_vliw[21] io_oeb_vliw[22] io_oeb_vliw[23] io_oeb_vliw[24]
+ io_oeb_vliw[25] io_oeb_vliw[26] io_oeb_vliw[27] io_oeb_vliw[28] io_oeb_vliw[29]
+ io_oeb_vliw[2] io_oeb_vliw[30] io_oeb_vliw[31] io_oeb_vliw[32] io_oeb_vliw[33] io_oeb_vliw[34]
+ io_oeb_vliw[35] io_oeb_vliw[3] io_oeb_vliw[4] io_oeb_vliw[5] io_oeb_vliw[6] io_oeb_vliw[7]
+ io_oeb_vliw[8] io_oeb_vliw[9] io_oeb_z80[0] io_oeb_z80[10] io_oeb_z80[11] io_oeb_z80[12]
+ io_oeb_z80[13] io_oeb_z80[14] io_oeb_z80[15] io_oeb_z80[16] io_oeb_z80[17] io_oeb_z80[18]
+ io_oeb_z80[19] io_oeb_z80[1] io_oeb_z80[20] io_oeb_z80[21] io_oeb_z80[22] io_oeb_z80[23]
+ io_oeb_z80[24] io_oeb_z80[25] io_oeb_z80[26] io_oeb_z80[27] io_oeb_z80[28] io_oeb_z80[29]
+ io_oeb_z80[2] io_oeb_z80[30] io_oeb_z80[31] io_oeb_z80[32] io_oeb_z80[33] io_oeb_z80[34]
+ io_oeb_z80[35] io_oeb_z80[3] io_oeb_z80[4] io_oeb_z80[5] io_oeb_z80[6] io_oeb_z80[7]
+ io_oeb_z80[8] io_oeb_z80[9] io_out[0] io_out[10] io_out[11] io_out[12] io_out[13]
+ io_out[14] io_out[15] io_out[16] io_out[17] io_out[18] io_out[19] io_out[1] io_out[20]
+ io_out[21] io_out[22] io_out[23] io_out[24] io_out[25] io_out[26] io_out[27] io_out[28]
+ io_out[29] io_out[2] io_out[30] io_out[31] io_out[32] io_out[33] io_out[34] io_out[35]
+ io_out[36] io_out[37] io_out[3] io_out[4] io_out[5] io_out[6] io_out[7] io_out[8]
+ io_out[9] io_out_6502[0] io_out_6502[10] io_out_6502[11] io_out_6502[12] io_out_6502[13]
+ io_out_6502[14] io_out_6502[15] io_out_6502[16] io_out_6502[17] io_out_6502[18]
+ io_out_6502[19] io_out_6502[1] io_out_6502[20] io_out_6502[21] io_out_6502[22] io_out_6502[23]
+ io_out_6502[24] io_out_6502[25] io_out_6502[26] io_out_6502[27] io_out_6502[28]
+ io_out_6502[29] io_out_6502[2] io_out_6502[30] io_out_6502[31] io_out_6502[32] io_out_6502[33]
+ io_out_6502[34] io_out_6502[35] io_out_6502[3] io_out_6502[4] io_out_6502[5] io_out_6502[6]
+ io_out_6502[7] io_out_6502[8] io_out_6502[9] io_out_8x305[0] io_out_8x305[10] io_out_8x305[11]
+ io_out_8x305[12] io_out_8x305[13] io_out_8x305[14] io_out_8x305[15] io_out_8x305[16]
+ io_out_8x305[17] io_out_8x305[18] io_out_8x305[19] io_out_8x305[1] io_out_8x305[20]
+ io_out_8x305[21] io_out_8x305[22] io_out_8x305[23] io_out_8x305[24] io_out_8x305[25]
+ io_out_8x305[26] io_out_8x305[27] io_out_8x305[28] io_out_8x305[29] io_out_8x305[2]
+ io_out_8x305[30] io_out_8x305[31] io_out_8x305[32] io_out_8x305[33] io_out_8x305[34]
+ io_out_8x305[35] io_out_8x305[3] io_out_8x305[4] io_out_8x305[5] io_out_8x305[6]
+ io_out_8x305[7] io_out_8x305[8] io_out_8x305[9] io_out_as1802[0] io_out_as1802[10]
+ io_out_as1802[11] io_out_as1802[12] io_out_as1802[13] io_out_as1802[14] io_out_as1802[15]
+ io_out_as1802[16] io_out_as1802[17] io_out_as1802[18] io_out_as1802[19] io_out_as1802[1]
+ io_out_as1802[20] io_out_as1802[21] io_out_as1802[22] io_out_as1802[23] io_out_as1802[24]
+ io_out_as1802[25] io_out_as1802[26] io_out_as1802[27] io_out_as1802[28] io_out_as1802[29]
+ io_out_as1802[2] io_out_as1802[30] io_out_as1802[31] io_out_as1802[32] io_out_as1802[33]
+ io_out_as1802[34] io_out_as1802[35] io_out_as1802[3] io_out_as1802[4] io_out_as1802[5]
+ io_out_as1802[6] io_out_as1802[7] io_out_as1802[8] io_out_as1802[9] io_out_scrapcpu[0]
+ io_out_scrapcpu[10] io_out_scrapcpu[11] io_out_scrapcpu[12] io_out_scrapcpu[13]
+ io_out_scrapcpu[14] io_out_scrapcpu[15] io_out_scrapcpu[16] io_out_scrapcpu[17]
+ io_out_scrapcpu[18] io_out_scrapcpu[19] io_out_scrapcpu[1] io_out_scrapcpu[20] io_out_scrapcpu[21]
+ io_out_scrapcpu[22] io_out_scrapcpu[23] io_out_scrapcpu[24] io_out_scrapcpu[25]
+ io_out_scrapcpu[26] io_out_scrapcpu[27] io_out_scrapcpu[28] io_out_scrapcpu[29]
+ io_out_scrapcpu[2] io_out_scrapcpu[30] io_out_scrapcpu[31] io_out_scrapcpu[32] io_out_scrapcpu[33]
+ io_out_scrapcpu[34] io_out_scrapcpu[35] io_out_scrapcpu[3] io_out_scrapcpu[4] io_out_scrapcpu[5]
+ io_out_scrapcpu[6] io_out_scrapcpu[7] io_out_scrapcpu[8] io_out_scrapcpu[9] io_out_vliw[0]
+ io_out_vliw[10] io_out_vliw[11] io_out_vliw[12] io_out_vliw[13] io_out_vliw[14]
+ io_out_vliw[15] io_out_vliw[16] io_out_vliw[17] io_out_vliw[18] io_out_vliw[19]
+ io_out_vliw[1] io_out_vliw[20] io_out_vliw[21] io_out_vliw[22] io_out_vliw[23] io_out_vliw[24]
+ io_out_vliw[25] io_out_vliw[26] io_out_vliw[27] io_out_vliw[28] io_out_vliw[29]
+ io_out_vliw[2] io_out_vliw[30] io_out_vliw[31] io_out_vliw[32] io_out_vliw[33] io_out_vliw[34]
+ io_out_vliw[35] io_out_vliw[3] io_out_vliw[4] io_out_vliw[5] io_out_vliw[6] io_out_vliw[7]
+ io_out_vliw[8] io_out_vliw[9] io_out_z80[0] io_out_z80[10] io_out_z80[11] io_out_z80[12]
+ io_out_z80[13] io_out_z80[14] io_out_z80[15] io_out_z80[16] io_out_z80[17] io_out_z80[18]
+ io_out_z80[19] io_out_z80[1] io_out_z80[20] io_out_z80[21] io_out_z80[22] io_out_z80[23]
+ io_out_z80[24] io_out_z80[25] io_out_z80[26] io_out_z80[27] io_out_z80[28] io_out_z80[29]
+ io_out_z80[2] io_out_z80[30] io_out_z80[31] io_out_z80[32] io_out_z80[33] io_out_z80[34]
+ io_out_z80[35] io_out_z80[3] io_out_z80[4] io_out_z80[5] io_out_z80[6] io_out_z80[7]
+ io_out_z80[8] io_out_z80[9] la_data_out[0] la_data_out[10] la_data_out[11] la_data_out[12]
+ la_data_out[13] la_data_out[14] la_data_out[15] la_data_out[16] la_data_out[17]
+ la_data_out[18] la_data_out[19] la_data_out[1] la_data_out[20] la_data_out[21] la_data_out[22]
+ la_data_out[23] la_data_out[24] la_data_out[25] la_data_out[26] la_data_out[27]
+ la_data_out[28] la_data_out[29] la_data_out[2] la_data_out[30] la_data_out[31] la_data_out[32]
+ la_data_out[33] la_data_out[34] la_data_out[35] la_data_out[36] la_data_out[37]
+ la_data_out[38] la_data_out[39] la_data_out[3] la_data_out[4] la_data_out[5] la_data_out[6]
+ la_data_out[7] la_data_out[8] la_data_out[9] rst_6502 rst_8x305 rst_as1802 rst_scrapcpu
+ rst_vliw rst_z80 vccd1 vssd1 wb_clk_i wb_rst_i wbs_ack_o wbs_adr_i[0] wbs_adr_i[10]
+ wbs_adr_i[11] wbs_adr_i[12] wbs_adr_i[13] wbs_adr_i[14] wbs_adr_i[15] wbs_adr_i[16]
+ wbs_adr_i[17] wbs_adr_i[18] wbs_adr_i[19] wbs_adr_i[1] wbs_adr_i[20] wbs_adr_i[21]
+ wbs_adr_i[22] wbs_adr_i[23] wbs_adr_i[24] wbs_adr_i[25] wbs_adr_i[26] wbs_adr_i[27]
+ wbs_adr_i[28] wbs_adr_i[29] wbs_adr_i[2] wbs_adr_i[30] wbs_adr_i[31] wbs_adr_i[3]
+ wbs_adr_i[4] wbs_adr_i[5] wbs_adr_i[6] wbs_adr_i[7] wbs_adr_i[8] wbs_adr_i[9] wbs_cyc_i
+ wbs_dat_i[0] wbs_dat_i[10] wbs_dat_i[11] wbs_dat_i[12] wbs_dat_i[13] wbs_dat_i[14]
+ wbs_dat_i[15] wbs_dat_i[16] wbs_dat_i[17] wbs_dat_i[18] wbs_dat_i[19] wbs_dat_i[1]
+ wbs_dat_i[20] wbs_dat_i[21] wbs_dat_i[22] wbs_dat_i[23] wbs_dat_i[24] wbs_dat_i[25]
+ wbs_dat_i[26] wbs_dat_i[27] wbs_dat_i[28] wbs_dat_i[29] wbs_dat_i[2] wbs_dat_i[30]
+ wbs_dat_i[31] wbs_dat_i[3] wbs_dat_i[4] wbs_dat_i[5] wbs_dat_i[6] wbs_dat_i[7] wbs_dat_i[8]
+ wbs_dat_i[9] wbs_dat_o[0] wbs_dat_o[10] wbs_dat_o[11] wbs_dat_o[12] wbs_dat_o[13]
+ wbs_dat_o[14] wbs_dat_o[15] wbs_dat_o[16] wbs_dat_o[17] wbs_dat_o[18] wbs_dat_o[19]
+ wbs_dat_o[1] wbs_dat_o[20] wbs_dat_o[21] wbs_dat_o[22] wbs_dat_o[23] wbs_dat_o[24]
+ wbs_dat_o[25] wbs_dat_o[26] wbs_dat_o[27] wbs_dat_o[28] wbs_dat_o[29] wbs_dat_o[2]
+ wbs_dat_o[30] wbs_dat_o[31] wbs_dat_o[3] wbs_dat_o[4] wbs_dat_o[5] wbs_dat_o[6]
+ wbs_dat_o[7] wbs_dat_o[8] wbs_dat_o[9] wbs_stb_i wbs_we_i
.ends

* Black-box entry subcircuit for top_fgcaptest abstract view
.subckt top_fgcaptest addr[0] addr[1] addr[2] addr[3] addr[4] addr[5] addr[6] addr[7]
+ addr[8] vssd2 vccd2
.ends

* Black-box entry subcircuit for vliw abstract view
.subckt vliw cache_PC[0] cache_PC[10] cache_PC[11] cache_PC[12] cache_PC[13] cache_PC[14]
+ cache_PC[15] cache_PC[16] cache_PC[17] cache_PC[18] cache_PC[19] cache_PC[1] cache_PC[20]
+ cache_PC[21] cache_PC[22] cache_PC[23] cache_PC[24] cache_PC[25] cache_PC[26] cache_PC[27]
+ cache_PC[2] cache_PC[3] cache_PC[4] cache_PC[5] cache_PC[6] cache_PC[7] cache_PC[8]
+ cache_PC[9] cache_entry[0] cache_entry[100] cache_entry[101] cache_entry[102] cache_entry[103]
+ cache_entry[104] cache_entry[105] cache_entry[106] cache_entry[107] cache_entry[108]
+ cache_entry[109] cache_entry[10] cache_entry[110] cache_entry[111] cache_entry[112]
+ cache_entry[113] cache_entry[114] cache_entry[115] cache_entry[116] cache_entry[117]
+ cache_entry[118] cache_entry[119] cache_entry[11] cache_entry[120] cache_entry[121]
+ cache_entry[122] cache_entry[123] cache_entry[124] cache_entry[125] cache_entry[126]
+ cache_entry[127] cache_entry[12] cache_entry[13] cache_entry[14] cache_entry[15]
+ cache_entry[16] cache_entry[17] cache_entry[18] cache_entry[19] cache_entry[1] cache_entry[20]
+ cache_entry[21] cache_entry[22] cache_entry[23] cache_entry[24] cache_entry[25]
+ cache_entry[26] cache_entry[27] cache_entry[28] cache_entry[29] cache_entry[2] cache_entry[30]
+ cache_entry[31] cache_entry[32] cache_entry[33] cache_entry[34] cache_entry[35]
+ cache_entry[36] cache_entry[37] cache_entry[38] cache_entry[39] cache_entry[3] cache_entry[40]
+ cache_entry[41] cache_entry[42] cache_entry[43] cache_entry[44] cache_entry[45]
+ cache_entry[46] cache_entry[47] cache_entry[48] cache_entry[49] cache_entry[4] cache_entry[50]
+ cache_entry[51] cache_entry[52] cache_entry[53] cache_entry[54] cache_entry[55]
+ cache_entry[56] cache_entry[57] cache_entry[58] cache_entry[59] cache_entry[5] cache_entry[60]
+ cache_entry[61] cache_entry[62] cache_entry[63] cache_entry[64] cache_entry[65]
+ cache_entry[66] cache_entry[67] cache_entry[68] cache_entry[69] cache_entry[6] cache_entry[70]
+ cache_entry[71] cache_entry[72] cache_entry[73] cache_entry[74] cache_entry[75]
+ cache_entry[76] cache_entry[77] cache_entry[78] cache_entry[79] cache_entry[7] cache_entry[80]
+ cache_entry[81] cache_entry[82] cache_entry[83] cache_entry[84] cache_entry[85]
+ cache_entry[86] cache_entry[87] cache_entry[88] cache_entry[89] cache_entry[8] cache_entry[90]
+ cache_entry[91] cache_entry[92] cache_entry[93] cache_entry[94] cache_entry[95]
+ cache_entry[96] cache_entry[97] cache_entry[98] cache_entry[99] cache_entry[9] cache_entry_valid
+ cache_hit cache_invalidate cache_new_entry[0] cache_new_entry[100] cache_new_entry[101]
+ cache_new_entry[102] cache_new_entry[103] cache_new_entry[104] cache_new_entry[105]
+ cache_new_entry[106] cache_new_entry[107] cache_new_entry[108] cache_new_entry[109]
+ cache_new_entry[10] cache_new_entry[110] cache_new_entry[111] cache_new_entry[112]
+ cache_new_entry[113] cache_new_entry[114] cache_new_entry[115] cache_new_entry[116]
+ cache_new_entry[117] cache_new_entry[118] cache_new_entry[119] cache_new_entry[11]
+ cache_new_entry[120] cache_new_entry[121] cache_new_entry[122] cache_new_entry[123]
+ cache_new_entry[124] cache_new_entry[125] cache_new_entry[126] cache_new_entry[127]
+ cache_new_entry[12] cache_new_entry[13] cache_new_entry[14] cache_new_entry[15]
+ cache_new_entry[16] cache_new_entry[17] cache_new_entry[18] cache_new_entry[19]
+ cache_new_entry[1] cache_new_entry[20] cache_new_entry[21] cache_new_entry[22] cache_new_entry[23]
+ cache_new_entry[24] cache_new_entry[25] cache_new_entry[26] cache_new_entry[27]
+ cache_new_entry[28] cache_new_entry[29] cache_new_entry[2] cache_new_entry[30] cache_new_entry[31]
+ cache_new_entry[32] cache_new_entry[33] cache_new_entry[34] cache_new_entry[35]
+ cache_new_entry[36] cache_new_entry[37] cache_new_entry[38] cache_new_entry[39]
+ cache_new_entry[3] cache_new_entry[40] cache_new_entry[41] cache_new_entry[42] cache_new_entry[43]
+ cache_new_entry[44] cache_new_entry[45] cache_new_entry[46] cache_new_entry[47]
+ cache_new_entry[48] cache_new_entry[49] cache_new_entry[4] cache_new_entry[50] cache_new_entry[51]
+ cache_new_entry[52] cache_new_entry[53] cache_new_entry[54] cache_new_entry[55]
+ cache_new_entry[56] cache_new_entry[57] cache_new_entry[58] cache_new_entry[59]
+ cache_new_entry[5] cache_new_entry[60] cache_new_entry[61] cache_new_entry[62] cache_new_entry[63]
+ cache_new_entry[64] cache_new_entry[65] cache_new_entry[66] cache_new_entry[67]
+ cache_new_entry[68] cache_new_entry[69] cache_new_entry[6] cache_new_entry[70] cache_new_entry[71]
+ cache_new_entry[72] cache_new_entry[73] cache_new_entry[74] cache_new_entry[75]
+ cache_new_entry[76] cache_new_entry[77] cache_new_entry[78] cache_new_entry[79]
+ cache_new_entry[7] cache_new_entry[80] cache_new_entry[81] cache_new_entry[82] cache_new_entry[83]
+ cache_new_entry[84] cache_new_entry[85] cache_new_entry[86] cache_new_entry[87]
+ cache_new_entry[88] cache_new_entry[89] cache_new_entry[8] cache_new_entry[90] cache_new_entry[91]
+ cache_new_entry[92] cache_new_entry[93] cache_new_entry[94] cache_new_entry[95]
+ cache_new_entry[96] cache_new_entry[97] cache_new_entry[98] cache_new_entry[99]
+ cache_new_entry[9] cache_rst curr_PC[0] curr_PC[10] curr_PC[11] curr_PC[12] curr_PC[13]
+ curr_PC[14] curr_PC[15] curr_PC[16] curr_PC[17] curr_PC[18] curr_PC[19] curr_PC[1]
+ curr_PC[20] curr_PC[21] curr_PC[22] curr_PC[23] curr_PC[24] curr_PC[25] curr_PC[26]
+ curr_PC[27] curr_PC[2] curr_PC[3] curr_PC[4] curr_PC[5] curr_PC[6] curr_PC[7] curr_PC[8]
+ curr_PC[9] custom_settings[0] custom_settings[1] custom_settings[2] custom_settings[3]
+ custom_settings[4] dest_idx0[0] dest_idx0[1] dest_idx0[2] dest_idx0[3] dest_idx0[4]
+ dest_idx0[5] dest_idx1[0] dest_idx1[1] dest_idx1[2] dest_idx1[3] dest_idx1[4] dest_idx1[5]
+ dest_idx2[0] dest_idx2[1] dest_idx2[2] dest_idx2[3] dest_idx2[4] dest_idx2[5] dest_mask0[0]
+ dest_mask0[1] dest_mask1[0] dest_mask1[1] dest_mask2[0] dest_mask2[1] dest_pred0[0]
+ dest_pred0[1] dest_pred0[2] dest_pred1[0] dest_pred1[1] dest_pred1[2] dest_pred2[0]
+ dest_pred2[1] dest_pred2[2] dest_pred_val0 dest_pred_val1 dest_pred_val2 dest_val0[0]
+ dest_val0[10] dest_val0[11] dest_val0[12] dest_val0[13] dest_val0[14] dest_val0[15]
+ dest_val0[16] dest_val0[17] dest_val0[18] dest_val0[19] dest_val0[1] dest_val0[20]
+ dest_val0[21] dest_val0[22] dest_val0[23] dest_val0[24] dest_val0[25] dest_val0[26]
+ dest_val0[27] dest_val0[28] dest_val0[29] dest_val0[2] dest_val0[30] dest_val0[31]
+ dest_val0[3] dest_val0[4] dest_val0[5] dest_val0[6] dest_val0[7] dest_val0[8] dest_val0[9]
+ dest_val1[0] dest_val1[10] dest_val1[11] dest_val1[12] dest_val1[13] dest_val1[14]
+ dest_val1[15] dest_val1[16] dest_val1[17] dest_val1[18] dest_val1[19] dest_val1[1]
+ dest_val1[20] dest_val1[21] dest_val1[22] dest_val1[23] dest_val1[24] dest_val1[25]
+ dest_val1[26] dest_val1[27] dest_val1[28] dest_val1[29] dest_val1[2] dest_val1[30]
+ dest_val1[31] dest_val1[3] dest_val1[4] dest_val1[5] dest_val1[6] dest_val1[7] dest_val1[8]
+ dest_val1[9] dest_val2[0] dest_val2[10] dest_val2[11] dest_val2[12] dest_val2[13]
+ dest_val2[14] dest_val2[15] dest_val2[16] dest_val2[17] dest_val2[18] dest_val2[19]
+ dest_val2[1] dest_val2[20] dest_val2[21] dest_val2[22] dest_val2[23] dest_val2[24]
+ dest_val2[25] dest_val2[26] dest_val2[27] dest_val2[28] dest_val2[29] dest_val2[2]
+ dest_val2[30] dest_val2[31] dest_val2[3] dest_val2[4] dest_val2[5] dest_val2[6]
+ dest_val2[7] dest_val2[8] dest_val2[9] eu0_busy eu0_instruction[0] eu0_instruction[10]
+ eu0_instruction[11] eu0_instruction[12] eu0_instruction[13] eu0_instruction[14]
+ eu0_instruction[15] eu0_instruction[16] eu0_instruction[17] eu0_instruction[18]
+ eu0_instruction[19] eu0_instruction[1] eu0_instruction[20] eu0_instruction[21] eu0_instruction[22]
+ eu0_instruction[23] eu0_instruction[24] eu0_instruction[25] eu0_instruction[26]
+ eu0_instruction[27] eu0_instruction[28] eu0_instruction[29] eu0_instruction[2] eu0_instruction[30]
+ eu0_instruction[31] eu0_instruction[32] eu0_instruction[33] eu0_instruction[34]
+ eu0_instruction[35] eu0_instruction[36] eu0_instruction[37] eu0_instruction[38]
+ eu0_instruction[39] eu0_instruction[3] eu0_instruction[40] eu0_instruction[41] eu0_instruction[4]
+ eu0_instruction[5] eu0_instruction[6] eu0_instruction[7] eu0_instruction[8] eu0_instruction[9]
+ eu1_busy eu1_instruction[0] eu1_instruction[10] eu1_instruction[11] eu1_instruction[12]
+ eu1_instruction[13] eu1_instruction[14] eu1_instruction[15] eu1_instruction[16]
+ eu1_instruction[17] eu1_instruction[18] eu1_instruction[19] eu1_instruction[1] eu1_instruction[20]
+ eu1_instruction[21] eu1_instruction[22] eu1_instruction[23] eu1_instruction[24]
+ eu1_instruction[25] eu1_instruction[26] eu1_instruction[27] eu1_instruction[28]
+ eu1_instruction[29] eu1_instruction[2] eu1_instruction[30] eu1_instruction[31] eu1_instruction[32]
+ eu1_instruction[33] eu1_instruction[34] eu1_instruction[35] eu1_instruction[36]
+ eu1_instruction[37] eu1_instruction[38] eu1_instruction[39] eu1_instruction[3] eu1_instruction[40]
+ eu1_instruction[41] eu1_instruction[4] eu1_instruction[5] eu1_instruction[6] eu1_instruction[7]
+ eu1_instruction[8] eu1_instruction[9] eu2_busy eu2_instruction[0] eu2_instruction[10]
+ eu2_instruction[11] eu2_instruction[12] eu2_instruction[13] eu2_instruction[14]
+ eu2_instruction[15] eu2_instruction[16] eu2_instruction[17] eu2_instruction[18]
+ eu2_instruction[19] eu2_instruction[1] eu2_instruction[20] eu2_instruction[21] eu2_instruction[22]