* NGSPICE file created from wrapped_6502.ext - technology: sky130B

* Black-box entry subcircuit for sky130_fd_sc_hd__dfxtp_1 abstract view
.subckt sky130_fd_sc_hd__dfxtp_1 CLK D VGND VNB VPB VPWR Q
.ends

* Black-box entry subcircuit for sky130_fd_sc_hd__fill_1 abstract view
.subckt sky130_fd_sc_hd__fill_1 VGND VNB VPB VPWR
.ends

* Black-box entry subcircuit for sky130_fd_sc_hd__a21o_1 abstract view
.subckt sky130_fd_sc_hd__a21o_1 A1 A2 B1 VGND VNB VPB VPWR X
.ends

* Black-box entry subcircuit for sky130_fd_sc_hd__tapvpwrvgnd_1 abstract view
.subckt sky130_fd_sc_hd__tapvpwrvgnd_1 VGND VPWR
.ends

* Black-box entry subcircuit for sky130_fd_sc_hd__fill_2 abstract view
.subckt sky130_fd_sc_hd__fill_2 VGND VNB VPB VPWR
.ends

* Black-box entry subcircuit for sky130_fd_sc_hd__decap_4 abstract view
.subckt sky130_fd_sc_hd__decap_4 VGND VNB VPB VPWR
.ends

* Black-box entry subcircuit for sky130_ef_sc_hd__decap_12 abstract view
.subckt sky130_ef_sc_hd__decap_12 VGND VNB VPB VPWR
.ends

* Black-box entry subcircuit for sky130_fd_sc_hd__diode_2 abstract view
.subckt sky130_fd_sc_hd__diode_2 DIODE VGND VNB VPB VPWR
.ends

* Black-box entry subcircuit for sky130_fd_sc_hd__decap_3 abstract view
.subckt sky130_fd_sc_hd__decap_3 VGND VNB VPB VPWR
.ends

* Black-box entry subcircuit for sky130_fd_sc_hd__nand2_4 abstract view
.subckt sky130_fd_sc_hd__nand2_4 A B VGND VNB VPB VPWR Y
.ends

* Black-box entry subcircuit for sky130_fd_sc_hd__and2_1 abstract view
.subckt sky130_fd_sc_hd__and2_1 A B VGND VNB VPB VPWR X
.ends

* Black-box entry subcircuit for sky130_fd_sc_hd__inv_2 abstract view
.subckt sky130_fd_sc_hd__inv_2 A VGND VNB VPB VPWR Y
.ends

* Black-box entry subcircuit for sky130_fd_sc_hd__nand2_1 abstract view
.subckt sky130_fd_sc_hd__nand2_1 A B VGND VNB VPB VPWR Y
.ends

* Black-box entry subcircuit for sky130_fd_sc_hd__a22o_1 abstract view
.subckt sky130_fd_sc_hd__a22o_1 A1 A2 B1 B2 VGND VNB VPB VPWR X
.ends

* Black-box entry subcircuit for sky130_fd_sc_hd__dlygate4sd3_1 abstract view
.subckt sky130_fd_sc_hd__dlygate4sd3_1 A VGND VNB VPB VPWR X
.ends

* Black-box entry subcircuit for sky130_fd_sc_hd__decap_6 abstract view
.subckt sky130_fd_sc_hd__decap_6 VGND VNB VPB VPWR
.ends

* Black-box entry subcircuit for sky130_fd_sc_hd__nand2_2 abstract view
.subckt sky130_fd_sc_hd__nand2_2 A B VGND VNB VPB VPWR Y
.ends

* Black-box entry subcircuit for sky130_fd_sc_hd__o211ai_2 abstract view
.subckt sky130_fd_sc_hd__o211ai_2 A1 A2 B1 C1 VGND VNB VPB VPWR Y
.ends

* Black-box entry subcircuit for sky130_fd_sc_hd__decap_8 abstract view
.subckt sky130_fd_sc_hd__decap_8 VGND VNB VPB VPWR
.ends

* Black-box entry subcircuit for sky130_fd_sc_hd__and2_2 abstract view
.subckt sky130_fd_sc_hd__and2_2 A B VGND VNB VPB VPWR X
.ends

* Black-box entry subcircuit for sky130_fd_sc_hd__and4b_2 abstract view
.subckt sky130_fd_sc_hd__and4b_2 A_N B C D VGND VNB VPB VPWR X
.ends

* Black-box entry subcircuit for sky130_fd_sc_hd__mux2_1 abstract view
.subckt sky130_fd_sc_hd__mux2_1 A0 A1 S VGND VNB VPB VPWR X
.ends

* Black-box entry subcircuit for sky130_fd_sc_hd__or4bb_4 abstract view
.subckt sky130_fd_sc_hd__or4bb_4 A B C_N D_N VGND VNB VPB VPWR X
.ends

* Black-box entry subcircuit for sky130_fd_sc_hd__nand4_1 abstract view
.subckt sky130_fd_sc_hd__nand4_1 A B C D VGND VNB VPB VPWR Y
.ends

* Black-box entry subcircuit for sky130_fd_sc_hd__a221o_2 abstract view
.subckt sky130_fd_sc_hd__a221o_2 A1 A2 B1 B2 C1 VGND VNB VPB VPWR X
.ends

* Black-box entry subcircuit for sky130_fd_sc_hd__a32o_1 abstract view
.subckt sky130_fd_sc_hd__a32o_1 A1 A2 A3 B1 B2 VGND VNB VPB VPWR X
.ends

* Black-box entry subcircuit for sky130_fd_sc_hd__buf_12 abstract view
.subckt sky130_fd_sc_hd__buf_12 A VGND VNB VPB VPWR X
.ends

* Black-box entry subcircuit for sky130_fd_sc_hd__o31a_1 abstract view
.subckt sky130_fd_sc_hd__o31a_1 A1 A2 A3 B1 VGND VNB VPB VPWR X
.ends

* Black-box entry subcircuit for sky130_fd_sc_hd__nor2_1 abstract view
.subckt sky130_fd_sc_hd__nor2_1 A B VGND VNB VPB VPWR Y
.ends

* Black-box entry subcircuit for sky130_fd_sc_hd__or4_4 abstract view
.subckt sky130_fd_sc_hd__or4_4 A B C D VGND VNB VPB VPWR X
.ends

* Black-box entry subcircuit for sky130_fd_sc_hd__a221o_1 abstract view
.subckt sky130_fd_sc_hd__a221o_1 A1 A2 B1 B2 C1 VGND VNB VPB VPWR X
.ends

* Black-box entry subcircuit for sky130_fd_sc_hd__dlymetal6s2s_1 abstract view
.subckt sky130_fd_sc_hd__dlymetal6s2s_1 A VGND VNB VPB VPWR X
.ends

* Black-box entry subcircuit for sky130_fd_sc_hd__buf_1 abstract view
.subckt sky130_fd_sc_hd__buf_1 A VGND VNB VPB VPWR X
.ends

* Black-box entry subcircuit for sky130_fd_sc_hd__buf_2 abstract view
.subckt sky130_fd_sc_hd__buf_2 A VGND VNB VPB VPWR X
.ends

* Black-box entry subcircuit for sky130_fd_sc_hd__clkbuf_8 abstract view
.subckt sky130_fd_sc_hd__clkbuf_8 A VGND VNB VPB VPWR X
.ends

* Black-box entry subcircuit for sky130_fd_sc_hd__and2b_1 abstract view
.subckt sky130_fd_sc_hd__and2b_1 A_N B VGND VNB VPB VPWR X
.ends

* Black-box entry subcircuit for sky130_fd_sc_hd__o21a_1 abstract view
.subckt sky130_fd_sc_hd__o21a_1 A1 A2 B1 VGND VNB VPB VPWR X
.ends

* Black-box entry subcircuit for sky130_fd_sc_hd__and4bb_1 abstract view
.subckt sky130_fd_sc_hd__and4bb_1 A_N B_N C D VGND VNB VPB VPWR X
.ends

* Black-box entry subcircuit for sky130_fd_sc_hd__nor4_4 abstract view
.subckt sky130_fd_sc_hd__nor4_4 A B C D VGND VNB VPB VPWR Y
.ends

* Black-box entry subcircuit for sky130_fd_sc_hd__o41a_1 abstract view
.subckt sky130_fd_sc_hd__o41a_1 A1 A2 A3 A4 B1 VGND VNB VPB VPWR X
.ends

* Black-box entry subcircuit for sky130_fd_sc_hd__a211o_1 abstract view
.subckt sky130_fd_sc_hd__a211o_1 A1 A2 B1 C1 VGND VNB VPB VPWR X
.ends

* Black-box entry subcircuit for sky130_fd_sc_hd__a21oi_1 abstract view
.subckt sky130_fd_sc_hd__a21oi_1 A1 A2 B1 VGND VNB VPB VPWR Y
.ends

* Black-box entry subcircuit for sky130_fd_sc_hd__xnor2_1 abstract view
.subckt sky130_fd_sc_hd__xnor2_1 A B VGND VNB VPB VPWR Y
.ends

* Black-box entry subcircuit for sky130_fd_sc_hd__o211a_1 abstract view
.subckt sky130_fd_sc_hd__o211a_1 A1 A2 B1 C1 VGND VNB VPB VPWR X
.ends

* Black-box entry subcircuit for sky130_fd_sc_hd__a311o_1 abstract view
.subckt sky130_fd_sc_hd__a311o_1 A1 A2 A3 B1 C1 VGND VNB VPB VPWR X
.ends

* Black-box entry subcircuit for sky130_fd_sc_hd__a211oi_2 abstract view
.subckt sky130_fd_sc_hd__a211oi_2 A1 A2 B1 C1 VGND VNB VPB VPWR Y
.ends

* Black-box entry subcircuit for sky130_fd_sc_hd__nor2_2 abstract view
.subckt sky130_fd_sc_hd__nor2_2 A B VGND VNB VPB VPWR Y
.ends

* Black-box entry subcircuit for sky130_fd_sc_hd__a221oi_2 abstract view
.subckt sky130_fd_sc_hd__a221oi_2 A1 A2 B1 B2 C1 VGND VNB VPB VPWR Y
.ends

* Black-box entry subcircuit for sky130_fd_sc_hd__o22a_1 abstract view
.subckt sky130_fd_sc_hd__o22a_1 A1 A2 B1 B2 VGND VNB VPB VPWR X
.ends

* Black-box entry subcircuit for sky130_fd_sc_hd__and4_1 abstract view
.subckt sky130_fd_sc_hd__and4_1 A B C D VGND VNB VPB VPWR X
.ends

* Black-box entry subcircuit for sky130_fd_sc_hd__a31o_1 abstract view
.subckt sky130_fd_sc_hd__a31o_1 A1 A2 A3 B1 VGND VNB VPB VPWR X
.ends

* Black-box entry subcircuit for sky130_fd_sc_hd__or2_4 abstract view
.subckt sky130_fd_sc_hd__or2_4 A B VGND VNB VPB VPWR X
.ends

* Black-box entry subcircuit for sky130_fd_sc_hd__or2_1 abstract view
.subckt sky130_fd_sc_hd__or2_1 A B VGND VNB VPB VPWR X
.ends

* Black-box entry subcircuit for sky130_fd_sc_hd__clkdlybuf4s25_1 abstract view
.subckt sky130_fd_sc_hd__clkdlybuf4s25_1 A VGND VNB VPB VPWR X
.ends

* Black-box entry subcircuit for sky130_fd_sc_hd__or2_2 abstract view
.subckt sky130_fd_sc_hd__or2_2 A B VGND VNB VPB VPWR X
.ends

* Black-box entry subcircuit for sky130_fd_sc_hd__o21ai_1 abstract view
.subckt sky130_fd_sc_hd__o21ai_1 A1 A2 B1 VGND VNB VPB VPWR Y
.ends

* Black-box entry subcircuit for sky130_fd_sc_hd__or3b_1 abstract view
.subckt sky130_fd_sc_hd__or3b_1 A B C_N VGND VNB VPB VPWR X
.ends

* Black-box entry subcircuit for sky130_fd_sc_hd__a22oi_1 abstract view
.subckt sky130_fd_sc_hd__a22oi_1 A1 A2 B1 B2 VGND VNB VPB VPWR Y
.ends

* Black-box entry subcircuit for sky130_fd_sc_hd__xor2_1 abstract view
.subckt sky130_fd_sc_hd__xor2_1 A B VGND VNB VPB VPWR X
.ends

* Black-box entry subcircuit for sky130_fd_sc_hd__a21o_2 abstract view
.subckt sky130_fd_sc_hd__a21o_2 A1 A2 B1 VGND VNB VPB VPWR X
.ends

* Black-box entry subcircuit for sky130_fd_sc_hd__o311a_1 abstract view
.subckt sky130_fd_sc_hd__o311a_1 A1 A2 A3 B1 C1 VGND VNB VPB VPWR X
.ends

* Black-box entry subcircuit for sky130_fd_sc_hd__or4_1 abstract view
.subckt sky130_fd_sc_hd__or4_1 A B C D VGND VNB VPB VPWR X
.ends

* Black-box entry subcircuit for sky130_fd_sc_hd__and3b_2 abstract view
.subckt sky130_fd_sc_hd__and3b_2 A_N B C VGND VNB VPB VPWR X
.ends

* Black-box entry subcircuit for sky130_fd_sc_hd__mux2_4 abstract view
.subckt sky130_fd_sc_hd__mux2_4 A0 A1 S VGND VNB VPB VPWR X
.ends

* Black-box entry subcircuit for sky130_fd_sc_hd__nor3_1 abstract view
.subckt sky130_fd_sc_hd__nor3_1 A B C VGND VNB VPB VPWR Y
.ends

* Black-box entry subcircuit for sky130_fd_sc_hd__o2111a_1 abstract view
.subckt sky130_fd_sc_hd__o2111a_1 A1 A2 B1 C1 D1 VGND VNB VPB VPWR X
.ends

* Black-box entry subcircuit for sky130_fd_sc_hd__a21oi_4 abstract view
.subckt sky130_fd_sc_hd__a21oi_4 A1 A2 B1 VGND VNB VPB VPWR Y
.ends

* Black-box entry subcircuit for sky130_fd_sc_hd__nor4_1 abstract view
.subckt sky130_fd_sc_hd__nor4_1 A B C D VGND VNB VPB VPWR Y
.ends

* Black-box entry subcircuit for sky130_fd_sc_hd__and3_1 abstract view
.subckt sky130_fd_sc_hd__and3_1 A B C VGND VNB VPB VPWR X
.ends

* Black-box entry subcircuit for sky130_fd_sc_hd__buf_4 abstract view
.subckt sky130_fd_sc_hd__buf_4 A VGND VNB VPB VPWR X
.ends

* Black-box entry subcircuit for sky130_fd_sc_hd__and4b_1 abstract view
.subckt sky130_fd_sc_hd__and4b_1 A_N B C D VGND VNB VPB VPWR X
.ends

* Black-box entry subcircuit for sky130_fd_sc_hd__o31ai_4 abstract view
.subckt sky130_fd_sc_hd__o31ai_4 A1 A2 A3 B1 VGND VNB VPB VPWR Y
.ends

* Black-box entry subcircuit for sky130_fd_sc_hd__nand2_8 abstract view
.subckt sky130_fd_sc_hd__nand2_8 A B VGND VNB VPB VPWR Y
.ends

* Black-box entry subcircuit for sky130_fd_sc_hd__nand4_2 abstract view
.subckt sky130_fd_sc_hd__nand4_2 A B C D VGND VNB VPB VPWR Y
.ends

* Black-box entry subcircuit for sky130_fd_sc_hd__a21boi_1 abstract view
.subckt sky130_fd_sc_hd__a21boi_1 A1 A2 B1_N VGND VNB VPB VPWR Y
.ends

* Black-box entry subcircuit for sky130_fd_sc_hd__o21ba_1 abstract view
.subckt sky130_fd_sc_hd__o21ba_1 A1 A2 B1_N VGND VNB VPB VPWR X
.ends

* Black-box entry subcircuit for sky130_fd_sc_hd__nor3_2 abstract view
.subckt sky130_fd_sc_hd__nor3_2 A B C VGND VNB VPB VPWR Y
.ends

* Black-box entry subcircuit for sky130_fd_sc_hd__and2b_4 abstract view
.subckt sky130_fd_sc_hd__and2b_4 A_N B VGND VNB VPB VPWR X
.ends

* Black-box entry subcircuit for sky130_fd_sc_hd__nand2b_1 abstract view
.subckt sky130_fd_sc_hd__nand2b_1 A_N B VGND VNB VPB VPWR Y
.ends

* Black-box entry subcircuit for sky130_fd_sc_hd__clkbuf_4 abstract view
.subckt sky130_fd_sc_hd__clkbuf_4 A VGND VNB VPB VPWR X
.ends

* Black-box entry subcircuit for sky130_fd_sc_hd__or3_1 abstract view
.subckt sky130_fd_sc_hd__or3_1 A B C VGND VNB VPB VPWR X
.ends

* Black-box entry subcircuit for sky130_fd_sc_hd__a211o_4 abstract view
.subckt sky130_fd_sc_hd__a211o_4 A1 A2 B1 C1 VGND VNB VPB VPWR X
.ends

* Black-box entry subcircuit for sky130_fd_sc_hd__a41o_1 abstract view
.subckt sky130_fd_sc_hd__a41o_1 A1 A2 A3 A4 B1 VGND VNB VPB VPWR X
.ends

* Black-box entry subcircuit for sky130_fd_sc_hd__or3_4 abstract view
.subckt sky130_fd_sc_hd__or3_4 A B C VGND VNB VPB VPWR X
.ends

* Black-box entry subcircuit for sky130_fd_sc_hd__o221a_1 abstract view
.subckt sky130_fd_sc_hd__o221a_1 A1 A2 B1 B2 C1 VGND VNB VPB VPWR X
.ends

* Black-box entry subcircuit for sky130_fd_sc_hd__o21bai_4 abstract view
.subckt sky130_fd_sc_hd__o21bai_4 A1 A2 B1_N VGND VNB VPB VPWR Y
.ends

* Black-box entry subcircuit for sky130_fd_sc_hd__a21bo_1 abstract view
.subckt sky130_fd_sc_hd__a21bo_1 A1 A2 B1_N VGND VNB VPB VPWR X
.ends

* Black-box entry subcircuit for sky130_fd_sc_hd__a2111oi_1 abstract view
.subckt sky130_fd_sc_hd__a2111oi_1 A1 A2 B1 C1 D1 VGND VNB VPB VPWR Y
.ends

* Black-box entry subcircuit for sky130_fd_sc_hd__a2bb2o_1 abstract view
.subckt sky130_fd_sc_hd__a2bb2o_1 A1_N A2_N B1 B2 VGND VNB VPB VPWR X
.ends

* Black-box entry subcircuit for sky130_fd_sc_hd__or4b_2 abstract view
.subckt sky130_fd_sc_hd__or4b_2 A B C D_N VGND VNB VPB VPWR X
.ends

* Black-box entry subcircuit for sky130_fd_sc_hd__or4bb_2 abstract view
.subckt sky130_fd_sc_hd__or4bb_2 A B C_N D_N VGND VNB VPB VPWR X
.ends

* Black-box entry subcircuit for sky130_fd_sc_hd__nor2_8 abstract view
.subckt sky130_fd_sc_hd__nor2_8 A B VGND VNB VPB VPWR Y
.ends

* Black-box entry subcircuit for sky130_fd_sc_hd__buf_8 abstract view
.subckt sky130_fd_sc_hd__buf_8 A VGND VNB VPB VPWR X
.ends

* Black-box entry subcircuit for sky130_fd_sc_hd__buf_6 abstract view
.subckt sky130_fd_sc_hd__buf_6 A VGND VNB VPB VPWR X
.ends

* Black-box entry subcircuit for sky130_fd_sc_hd__a21boi_4 abstract view
.subckt sky130_fd_sc_hd__a21boi_4 A1 A2 B1_N VGND VNB VPB VPWR Y
.ends

* Black-box entry subcircuit for sky130_fd_sc_hd__and3b_1 abstract view
.subckt sky130_fd_sc_hd__and3b_1 A_N B C VGND VNB VPB VPWR X
.ends

* Black-box entry subcircuit for sky130_fd_sc_hd__and2_4 abstract view
.subckt sky130_fd_sc_hd__and2_4 A B VGND VNB VPB VPWR X
.ends

* Black-box entry subcircuit for sky130_fd_sc_hd__a2111o_1 abstract view
.subckt sky130_fd_sc_hd__a2111o_1 A1 A2 B1 C1 D1 VGND VNB VPB VPWR X
.ends

* Black-box entry subcircuit for sky130_fd_sc_hd__dfxtp_2 abstract view
.subckt sky130_fd_sc_hd__dfxtp_2 CLK D VGND VNB VPB VPWR Q
.ends

* Black-box entry subcircuit for sky130_fd_sc_hd__a31o_4 abstract view
.subckt sky130_fd_sc_hd__a31o_4 A1 A2 A3 B1 VGND VNB VPB VPWR X
.ends

* Black-box entry subcircuit for sky130_fd_sc_hd__o211ai_4 abstract view
.subckt sky130_fd_sc_hd__o211ai_4 A1 A2 B1 C1 VGND VNB VPB VPWR Y
.ends

* Black-box entry subcircuit for sky130_fd_sc_hd__o22ai_2 abstract view
.subckt sky130_fd_sc_hd__o22ai_2 A1 A2 B1 B2 VGND VNB VPB VPWR Y
.ends

* Black-box entry subcircuit for sky130_fd_sc_hd__o41a_2 abstract view
.subckt sky130_fd_sc_hd__o41a_2 A1 A2 A3 A4 B1 VGND VNB VPB VPWR X
.ends

* Black-box entry subcircuit for sky130_fd_sc_hd__clkbuf_1 abstract view
.subckt sky130_fd_sc_hd__clkbuf_1 A VGND VNB VPB VPWR X
.ends

* Black-box entry subcircuit for sky130_fd_sc_hd__o22ai_4 abstract view
.subckt sky130_fd_sc_hd__o22ai_4 A1 A2 B1 B2 VGND VNB VPB VPWR Y
.ends

* Black-box entry subcircuit for sky130_fd_sc_hd__o32a_1 abstract view
.subckt sky130_fd_sc_hd__o32a_1 A1 A2 A3 B1 B2 VGND VNB VPB VPWR X
.ends

* Black-box entry subcircuit for sky130_fd_sc_hd__mux2_2 abstract view
.subckt sky130_fd_sc_hd__mux2_2 A0 A1 S VGND VNB VPB VPWR X
.ends

* Black-box entry subcircuit for sky130_fd_sc_hd__or4_2 abstract view
.subckt sky130_fd_sc_hd__or4_2 A B C D VGND VNB VPB VPWR X
.ends

* Black-box entry subcircuit for sky130_fd_sc_hd__a211oi_1 abstract view
.subckt sky130_fd_sc_hd__a211oi_1 A1 A2 B1 C1 VGND VNB VPB VPWR Y
.ends

* Black-box entry subcircuit for sky130_fd_sc_hd__xor2_2 abstract view
.subckt sky130_fd_sc_hd__xor2_2 A B VGND VNB VPB VPWR X
.ends

* Black-box entry subcircuit for sky130_fd_sc_hd__and3_4 abstract view
.subckt sky130_fd_sc_hd__and3_4 A B C VGND VNB VPB VPWR X
.ends

* Black-box entry subcircuit for sky130_fd_sc_hd__a22oi_4 abstract view
.subckt sky130_fd_sc_hd__a22oi_4 A1 A2 B1 B2 VGND VNB VPB VPWR Y
.ends

* Black-box entry subcircuit for sky130_fd_sc_hd__nand4b_4 abstract view
.subckt sky130_fd_sc_hd__nand4b_4 A_N B C D VGND VNB VPB VPWR Y
.ends

* Black-box entry subcircuit for sky130_fd_sc_hd__clkbuf_2 abstract view
.subckt sky130_fd_sc_hd__clkbuf_2 A VGND VNB VPB VPWR X
.ends

* Black-box entry subcircuit for sky130_fd_sc_hd__dfxtp_4 abstract view
.subckt sky130_fd_sc_hd__dfxtp_4 CLK D VGND VNB VPB VPWR Q
.ends

* Black-box entry subcircuit for sky130_fd_sc_hd__a211oi_4 abstract view
.subckt sky130_fd_sc_hd__a211oi_4 A1 A2 B1 C1 VGND VNB VPB VPWR Y
.ends

* Black-box entry subcircuit for sky130_fd_sc_hd__and2b_2 abstract view
.subckt sky130_fd_sc_hd__and2b_2 A_N B VGND VNB VPB VPWR X
.ends

* Black-box entry subcircuit for sky130_fd_sc_hd__and4_2 abstract view
.subckt sky130_fd_sc_hd__and4_2 A B C D VGND VNB VPB VPWR X
.ends

* Black-box entry subcircuit for sky130_fd_sc_hd__nor4b_4 abstract view
.subckt sky130_fd_sc_hd__nor4b_4 A B C D_N VGND VNB VPB VPWR Y
.ends

* Black-box entry subcircuit for sky130_fd_sc_hd__clkbuf_16 abstract view
.subckt sky130_fd_sc_hd__clkbuf_16 A VGND VNB VPB VPWR X
.ends

* Black-box entry subcircuit for sky130_fd_sc_hd__a221oi_4 abstract view
.subckt sky130_fd_sc_hd__a221oi_4 A1 A2 B1 B2 C1 VGND VNB VPB VPWR Y
.ends

* Black-box entry subcircuit for sky130_fd_sc_hd__o2bb2a_1 abstract view
.subckt sky130_fd_sc_hd__o2bb2a_1 A1_N A2_N B1 B2 VGND VNB VPB VPWR X
.ends

* Black-box entry subcircuit for sky130_fd_sc_hd__nor2_4 abstract view
.subckt sky130_fd_sc_hd__nor2_4 A B VGND VNB VPB VPWR Y
.ends

* Black-box entry subcircuit for sky130_fd_sc_hd__nand2b_2 abstract view
.subckt sky130_fd_sc_hd__nand2b_2 A_N B VGND VNB VPB VPWR Y
.ends

* Black-box entry subcircuit for sky130_fd_sc_hd__mux4_1 abstract view
.subckt sky130_fd_sc_hd__mux4_1 A0 A1 A2 A3 S0 S1 VGND VNB VPB VPWR X
.ends

* Black-box entry subcircuit for sky130_fd_sc_hd__conb_1 abstract view
.subckt sky130_fd_sc_hd__conb_1 VGND VNB VPB VPWR HI LO
.ends

* Black-box entry subcircuit for sky130_fd_sc_hd__a22oi_2 abstract view
.subckt sky130_fd_sc_hd__a22oi_2 A1 A2 B1 B2 VGND VNB VPB VPWR Y
.ends

* Black-box entry subcircuit for sky130_fd_sc_hd__or4b_1 abstract view
.subckt sky130_fd_sc_hd__or4b_1 A B C D_N VGND VNB VPB VPWR X
.ends

* Black-box entry subcircuit for sky130_fd_sc_hd__o211ai_1 abstract view
.subckt sky130_fd_sc_hd__o211ai_1 A1 A2 B1 C1 VGND VNB VPB VPWR Y
.ends

.subckt wrapped_6502 custom_settings[0] custom_settings[1] io_in[0] io_in[10] io_in[11]
+ io_in[12] io_in[13] io_in[14] io_in[15] io_in[16] io_in[17] io_in[18] io_in[19]
+ io_in[1] io_in[20] io_in[21] io_in[22] io_in[23] io_in[24] io_in[25] io_in[26] io_in[27]
+ io_in[28] io_in[29] io_in[2] io_in[30] io_in[31] io_in[32] io_in[33] io_in[34] io_in[35]
+ io_in[3] io_in[4] io_in[5] io_in[6] io_in[7] io_in[8] io_in[9] io_oeb io_out[0]
+ io_out[10] io_out[11] io_out[12] io_out[13] io_out[14] io_out[15] io_out[16] io_out[17]
+ io_out[18] io_out[19] io_out[1] io_out[20] io_out[21] io_out[22] io_out[23] io_out[24]
+ io_out[25] io_out[26] io_out[27] io_out[28] io_out[29] io_out[2] io_out[30] io_out[31]
+ io_out[32] io_out[33] io_out[34] io_out[35] io_out[3] io_out[4] io_out[5] io_out[6]
+ io_out[7] io_out[8] io_out[9] rst_n vccd1 vssd1 wb_clk_i
X_2106_ _2226_/CLK hold6/X vssd1 vssd1 vccd1 vccd1 hold5/A sky130_fd_sc_hd__dfxtp_1
XFILLER_0_49_314 vssd1 vssd1 vccd1 vccd1 sky130_fd_sc_hd__fill_1
X_2037_ _1273_/X _2036_/Y _2043_/B vssd1 vssd1 vccd1 vccd1 _2037_/X sky130_fd_sc_hd__a21o_1
XTAP_199 vssd1 vccd1 sky130_fd_sc_hd__tapvpwrvgnd_1
XTAP_188 vssd1 vccd1 sky130_fd_sc_hd__tapvpwrvgnd_1
XTAP_177 vssd1 vccd1 sky130_fd_sc_hd__tapvpwrvgnd_1
XFILLER_0_57_391 vssd1 vssd1 vccd1 vccd1 sky130_fd_sc_hd__fill_1
XFILLER_0_43_92 vssd1 vssd1 vccd1 vccd1 sky130_fd_sc_hd__fill_2
XFILLER_0_32_269 vssd1 vssd1 vccd1 vccd1 sky130_fd_sc_hd__decap_4
XFILLER_0_7_81 vssd1 vssd1 vccd1 vccd1 sky130_ef_sc_hd__decap_12
XFILLER_0_13_461 vssd1 vssd1 vccd1 vccd1 sky130_fd_sc_hd__fill_1
XANTENNA__1534__A _1548_/A vssd1 vssd1 vccd1 vccd1 sky130_fd_sc_hd__diode_2
XANTENNA_fanout75_A _1871_/A vssd1 vssd1 vccd1 vccd1 sky130_fd_sc_hd__diode_2
XFILLER_0_67_144 vssd1 vssd1 vccd1 vccd1 sky130_fd_sc_hd__decap_3
XFILLER_0_67_111 vssd1 vssd1 vccd1 vccd1 sky130_fd_sc_hd__fill_1
XANTENNA__1445__B2 _2117_/Q vssd1 vssd1 vccd1 vccd1 sky130_fd_sc_hd__diode_2
XFILLER_0_23_225 vssd1 vssd1 vccd1 vccd1 sky130_ef_sc_hd__decap_12
X_1270_ _1728_/B _1945_/A vssd1 vssd1 vccd1 vccd1 _2001_/A sky130_fd_sc_hd__nand2_4
XFILLER_0_3_39 vssd1 vssd1 vccd1 vccd1 sky130_ef_sc_hd__decap_12
XFILLER_0_73_169 vssd1 vssd1 vccd1 vccd1 sky130_ef_sc_hd__decap_12
XFILLER_0_73_125 vssd1 vssd1 vccd1 vccd1 sky130_ef_sc_hd__decap_12
XFILLER_0_58_111 vssd1 vssd1 vccd1 vccd1 sky130_fd_sc_hd__decap_3
XFILLER_0_39_391 vssd1 vssd1 vccd1 vccd1 sky130_fd_sc_hd__fill_1
XANTENNA__1436__A1 _1025_/Y vssd1 vssd1 vccd1 vccd1 sky130_fd_sc_hd__diode_2
XFILLER_0_13_51 vssd1 vssd1 vccd1 vccd1 sky130_fd_sc_hd__decap_4
X_1606_ _1606_/A _1606_/B vssd1 vssd1 vccd1 vccd1 _1607_/B sky130_fd_sc_hd__and2_1
X_1468_ _1468_/A vssd1 vssd1 vccd1 vccd1 _1468_/Y sky130_fd_sc_hd__inv_2
X_1537_ _2116_/Q _1538_/B vssd1 vssd1 vccd1 vccd1 _1539_/A sky130_fd_sc_hd__nand2_1
X_1399_ _1830_/B _1415_/A3 _1340_/B _1830_/C vssd1 vssd1 vccd1 vccd1 _1417_/D sky130_fd_sc_hd__a22o_1
XFILLER_0_49_133 vssd1 vssd1 vccd1 vccd1 sky130_fd_sc_hd__fill_1
XANTENNA__1427__B2 _2161_/Q vssd1 vssd1 vccd1 vccd1 sky130_fd_sc_hd__diode_2
Xhold181 _1710_/X vssd1 vssd1 vccd1 vccd1 _2115_/D sky130_fd_sc_hd__dlygate4sd3_1
Xhold192 _1699_/X vssd1 vssd1 vccd1 vccd1 _2108_/D sky130_fd_sc_hd__dlygate4sd3_1
Xhold170 _2010_/X vssd1 vssd1 vccd1 vccd1 _2191_/D sky130_fd_sc_hd__dlygate4sd3_1
XFILLER_0_18_29 vssd1 vssd1 vccd1 vccd1 sky130_ef_sc_hd__decap_12
XANTENNA__1203__S _1994_/A vssd1 vssd1 vccd1 vccd1 sky130_fd_sc_hd__diode_2
XFILLER_0_55_125 vssd1 vssd1 vccd1 vccd1 sky130_fd_sc_hd__fill_2
XFILLER_0_50_38 vssd1 vssd1 vccd1 vccd1 sky130_fd_sc_hd__fill_1
XFILLER_0_51_353 vssd1 vssd1 vccd1 vccd1 sky130_ef_sc_hd__decap_12
XFILLER_0_3_417 vssd1 vssd1 vccd1 vccd1 sky130_ef_sc_hd__decap_12
XFILLER_0_11_217 vssd1 vssd1 vccd1 vccd1 sky130_fd_sc_hd__decap_6
X_1253_ _1728_/B _1253_/B vssd1 vssd1 vccd1 vccd1 _2015_/A sky130_fd_sc_hd__nand2_2
X_1322_ _1486_/D _1365_/A _1340_/B _1907_/S vssd1 vssd1 vccd1 vccd1 _1414_/B sky130_fd_sc_hd__a22o_1
X_1184_ hold59/A _1499_/B _1182_/X _1882_/A vssd1 vssd1 vccd1 vccd1 _1186_/A sky130_fd_sc_hd__o211ai_2
XFILLER_0_27_361 vssd1 vssd1 vccd1 vccd1 sky130_ef_sc_hd__decap_12
XFILLER_0_6_233 vssd1 vssd1 vccd1 vccd1 sky130_ef_sc_hd__decap_12
XFILLER_0_6_277 vssd1 vssd1 vccd1 vccd1 sky130_ef_sc_hd__decap_12
XFILLER_0_19_317 vssd1 vssd1 vccd1 vccd1 sky130_ef_sc_hd__decap_12
XFILLER_0_71_3 vssd1 vssd1 vccd1 vccd1 sky130_ef_sc_hd__decap_12
XFILLER_0_42_353 vssd1 vssd1 vccd1 vccd1 sky130_fd_sc_hd__decap_8
XFILLER_0_40_93 vssd1 vssd1 vccd1 vccd1 sky130_fd_sc_hd__fill_2
XFILLER_0_2_461 vssd1 vssd1 vccd1 vccd1 sky130_fd_sc_hd__fill_1
XANTENNA__1896__A1 _1871_/B vssd1 vssd1 vccd1 vccd1 sky130_fd_sc_hd__diode_2
XFILLER_0_52_106 vssd1 vssd1 vccd1 vccd1 sky130_fd_sc_hd__fill_1
XANTENNA__1820__B2 _2053_/B2 vssd1 vssd1 vccd1 vccd1 sky130_fd_sc_hd__diode_2
XFILLER_0_20_19 vssd1 vssd1 vccd1 vccd1 sky130_fd_sc_hd__decap_6
XFILLER_0_68_250 vssd1 vssd1 vccd1 vccd1 sky130_fd_sc_hd__fill_2
XFILLER_0_61_15 vssd1 vssd1 vccd1 vccd1 sky130_ef_sc_hd__decap_12
XFILLER_0_0_29 vssd1 vssd1 vccd1 vccd1 sky130_ef_sc_hd__decap_12
X_1940_ hold7/X _1920_/Y _1939_/X vssd1 vssd1 vccd1 vccd1 hold8/A sky130_fd_sc_hd__a21o_1
X_1871_ _1871_/A _1871_/B vssd1 vssd1 vccd1 vccd1 _2159_/D sky130_fd_sc_hd__and2_1
XFILLER_0_56_445 vssd1 vssd1 vccd1 vccd1 sky130_ef_sc_hd__decap_12
XFILLER_0_56_401 vssd1 vssd1 vccd1 vccd1 sky130_ef_sc_hd__decap_12
XFILLER_0_43_117 vssd1 vssd1 vccd1 vccd1 sky130_fd_sc_hd__fill_2
XFILLER_0_9_27 vssd1 vssd1 vccd1 vccd1 sky130_ef_sc_hd__decap_12
XFILLER_0_16_309 vssd1 vssd1 vccd1 vccd1 sky130_ef_sc_hd__decap_12
XANTENNA__1811__A1 _2053_/B2 vssd1 vssd1 vccd1 vccd1 sky130_fd_sc_hd__diode_2
XFILLER_0_51_194 vssd1 vssd1 vccd1 vccd1 sky130_fd_sc_hd__fill_1
XFILLER_0_3_225 vssd1 vssd1 vccd1 vccd1 sky130_ef_sc_hd__decap_12
XFILLER_0_10_41 vssd1 vssd1 vccd1 vccd1 sky130_ef_sc_hd__decap_12
XFILLER_0_10_85 vssd1 vssd1 vccd1 vccd1 sky130_ef_sc_hd__decap_12
X_1305_ _1306_/A _1306_/B vssd1 vssd1 vccd1 vccd1 _2001_/C sky130_fd_sc_hd__and2_2
XANTENNA__1878__A1 _1864_/B vssd1 vssd1 vccd1 vccd1 sky130_fd_sc_hd__diode_2
X_1236_ _1114_/B _1821_/B _1821_/A _1236_/D vssd1 vssd1 vccd1 vccd1 _1245_/C sky130_fd_sc_hd__and4b_2
XFILLER_0_19_61 vssd1 vssd1 vccd1 vccd1 sky130_fd_sc_hd__fill_2
X_1167_ hold15/A hold63/A _1499_/B vssd1 vssd1 vccd1 vccd1 _1167_/X sky130_fd_sc_hd__mux2_1
X_1098_ _1236_/D _1114_/B _1821_/B _1821_/A vssd1 vssd1 vccd1 vccd1 _1121_/B sky130_fd_sc_hd__or4bb_4
XFILLER_0_19_125 vssd1 vssd1 vccd1 vccd1 sky130_ef_sc_hd__decap_12
XFILLER_0_34_139 vssd1 vssd1 vccd1 vccd1 sky130_fd_sc_hd__fill_1
XFILLER_0_19_169 vssd1 vssd1 vccd1 vccd1 sky130_ef_sc_hd__decap_12
XFILLER_0_30_389 vssd1 vssd1 vccd1 vccd1 sky130_ef_sc_hd__decap_12
XFILLER_0_30_345 vssd1 vssd1 vccd1 vccd1 sky130_ef_sc_hd__decap_12
XFILLER_0_38_445 vssd1 vssd1 vccd1 vccd1 sky130_ef_sc_hd__decap_12
XFILLER_0_38_401 vssd1 vssd1 vccd1 vccd1 sky130_ef_sc_hd__decap_12
XTAP_507 vssd1 vccd1 sky130_fd_sc_hd__tapvpwrvgnd_1
XFILLER_0_33_194 vssd1 vssd1 vccd1 vccd1 sky130_fd_sc_hd__fill_2
XANTENNA__1717__A _1922_/B vssd1 vssd1 vccd1 vccd1 sky130_fd_sc_hd__diode_2
X_2070_ hold39/X _1519_/X _2075_/S vssd1 vssd1 vccd1 vccd1 hold40/A sky130_fd_sc_hd__mux2_1
XTAP_529 vssd1 vccd1 sky130_fd_sc_hd__tapvpwrvgnd_1
XTAP_518 vssd1 vccd1 sky130_fd_sc_hd__tapvpwrvgnd_1
XANTENNA__1088__A2 _1922_/B vssd1 vssd1 vccd1 vccd1 sky130_fd_sc_hd__diode_2
XFILLER_0_71_223 vssd1 vssd1 vccd1 vccd1 sky130_fd_sc_hd__fill_1
X_1923_ _1923_/A _1923_/B vssd1 vssd1 vccd1 vccd1 _1923_/Y sky130_fd_sc_hd__nand2_1
X_1785_ _1785_/A _1785_/B _1785_/C _1785_/D vssd1 vssd1 vccd1 vccd1 _1785_/Y sky130_fd_sc_hd__nand4_1
XFILLER_0_31_109 vssd1 vssd1 vccd1 vccd1 sky130_fd_sc_hd__fill_1
X_1854_ hold186/X _1181_/X _1862_/S vssd1 vssd1 vccd1 vccd1 _1854_/X sky130_fd_sc_hd__mux2_1
XFILLER_0_12_301 vssd1 vssd1 vccd1 vccd1 sky130_fd_sc_hd__decap_6
XFILLER_0_16_139 vssd1 vssd1 vccd1 vccd1 sky130_fd_sc_hd__fill_1
XFILLER_0_12_345 vssd1 vssd1 vccd1 vccd1 sky130_ef_sc_hd__decap_12
XFILLER_0_12_389 vssd1 vssd1 vccd1 vccd1 sky130_ef_sc_hd__decap_12
XFILLER_0_46_92 vssd1 vssd1 vccd1 vccd1 sky130_fd_sc_hd__fill_2
X_2199_ _1233_/A _2199_/D vssd1 vssd1 vccd1 vccd1 _2199_/Q sky130_fd_sc_hd__dfxtp_1
X_1219_ hold200/X _1828_/B _1150_/S _1788_/A _1218_/X vssd1 vssd1 vccd1 vccd1 _1219_/X
+ sky130_fd_sc_hd__a221o_2
XFILLER_0_47_253 vssd1 vssd1 vccd1 vccd1 sky130_fd_sc_hd__fill_2
XFILLER_0_7_361 vssd1 vssd1 vccd1 vccd1 sky130_ef_sc_hd__decap_12
XFILLER_0_15_161 vssd1 vssd1 vccd1 vccd1 sky130_fd_sc_hd__decap_6
Xhold30 hold30/A vssd1 vssd1 vccd1 vccd1 hold30/X sky130_fd_sc_hd__dlygate4sd3_1
Xhold41 hold41/A vssd1 vssd1 vccd1 vccd1 hold41/X sky130_fd_sc_hd__dlygate4sd3_1
Xhold63 hold63/A vssd1 vssd1 vccd1 vccd1 hold63/X sky130_fd_sc_hd__dlygate4sd3_1
XANTENNA__1272__A _1728_/B vssd1 vssd1 vccd1 vccd1 sky130_fd_sc_hd__diode_2
Xhold52 hold52/A vssd1 vssd1 vccd1 vccd1 hold52/X sky130_fd_sc_hd__dlygate4sd3_1
Xhold74 hold74/A vssd1 vssd1 vccd1 vccd1 hold74/X sky130_fd_sc_hd__dlygate4sd3_1
XFILLER_0_30_197 vssd1 vssd1 vccd1 vccd1 sky130_fd_sc_hd__fill_2
Xhold96 hold96/A vssd1 vssd1 vccd1 vccd1 hold96/X sky130_fd_sc_hd__dlygate4sd3_1
Xhold85 hold85/A vssd1 vssd1 vccd1 vccd1 hold85/X sky130_fd_sc_hd__dlygate4sd3_1
XFILLER_0_53_201 vssd1 vssd1 vccd1 vccd1 sky130_fd_sc_hd__fill_1
XFILLER_0_41_429 vssd1 vssd1 vccd1 vccd1 sky130_ef_sc_hd__decap_12
XFILLER_0_38_264 vssd1 vssd1 vccd1 vccd1 sky130_fd_sc_hd__decap_4
XFILLER_0_38_253 vssd1 vssd1 vccd1 vccd1 sky130_fd_sc_hd__decap_4
XFILLER_0_67_47 vssd1 vssd1 vccd1 vccd1 sky130_fd_sc_hd__fill_1
X_1570_ _1570_/A _1570_/B vssd1 vssd1 vccd1 vccd1 _1571_/B sky130_fd_sc_hd__nand2_1
XTAP_304 vssd1 vccd1 sky130_fd_sc_hd__tapvpwrvgnd_1
XTAP_315 vssd1 vccd1 sky130_fd_sc_hd__tapvpwrvgnd_1
XTAP_326 vssd1 vccd1 sky130_fd_sc_hd__tapvpwrvgnd_1
XTAP_337 vssd1 vccd1 sky130_fd_sc_hd__tapvpwrvgnd_1
XTAP_348 vssd1 vccd1 sky130_fd_sc_hd__tapvpwrvgnd_1
X_2053_ hold73/X _2054_/A2 _1995_/B _2053_/B2 vssd1 vssd1 vccd1 vccd1 hold74/A sky130_fd_sc_hd__a22o_1
X_2122_ _2164_/CLK _2122_/D vssd1 vssd1 vccd1 vccd1 _2122_/Q sky130_fd_sc_hd__dfxtp_1
XTAP_359 vssd1 vccd1 sky130_fd_sc_hd__tapvpwrvgnd_1
X_1906_ _1028_/Y hold194/X _1912_/A vssd1 vssd1 vccd1 vccd1 _1906_/X sky130_fd_sc_hd__mux2_1
X_1768_ _2053_/B2 _1772_/A _1767_/Y _1820_/A2 _1763_/A vssd1 vssd1 vccd1 vccd1 _1768_/X
+ sky130_fd_sc_hd__a32o_1
X_1837_ _1863_/A _1837_/B vssd1 vssd1 vccd1 vccd1 _2137_/D sky130_fd_sc_hd__and2_1
XFILLER_0_12_153 vssd1 vssd1 vccd1 vccd1 sky130_ef_sc_hd__decap_12
X_1699_ _1239_/B _1698_/X _1920_/A vssd1 vssd1 vccd1 vccd1 _1699_/X sky130_fd_sc_hd__mux2_1
XFILLER_0_12_197 vssd1 vssd1 vccd1 vccd1 sky130_ef_sc_hd__decap_12
XFILLER_0_35_278 vssd1 vssd1 vccd1 vccd1 sky130_fd_sc_hd__fill_2
XFILLER_0_23_429 vssd1 vssd1 vccd1 vccd1 sky130_ef_sc_hd__decap_12
XFILLER_0_50_259 vssd1 vssd1 vccd1 vccd1 sky130_fd_sc_hd__fill_1
Xoutput31 _1438_/X vssd1 vssd1 vccd1 vccd1 io_out[23] sky130_fd_sc_hd__buf_12
Xoutput20 _1219_/X vssd1 vssd1 vccd1 vccd1 io_out[13] sky130_fd_sc_hd__buf_12
Xoutput42 _1190_/X vssd1 vssd1 vccd1 vccd1 io_out[5] sky130_fd_sc_hd__buf_12
XFILLER_0_73_307 vssd1 vssd1 vccd1 vccd1 sky130_fd_sc_hd__fill_1
XFILLER_0_58_326 vssd1 vssd1 vccd1 vccd1 sky130_fd_sc_hd__fill_2
XANTENNA__1876__S _1912_/A vssd1 vssd1 vccd1 vccd1 sky130_fd_sc_hd__diode_2
X_1622_ _1622_/A _1622_/B vssd1 vssd1 vccd1 vccd1 _1622_/Y sky130_fd_sc_hd__nand2_1
XFILLER_0_26_289 vssd1 vssd1 vccd1 vccd1 sky130_ef_sc_hd__decap_12
X_1553_ _2049_/A input5/X vssd1 vssd1 vccd1 vccd1 _2093_/D sky130_fd_sc_hd__and2_1
X_1484_ _1116_/C _1119_/A _1716_/B _2108_/Q vssd1 vssd1 vccd1 vccd1 _1488_/A sky130_fd_sc_hd__o31a_1
XTAP_189 vssd1 vccd1 sky130_fd_sc_hd__tapvpwrvgnd_1
XTAP_178 vssd1 vccd1 sky130_fd_sc_hd__tapvpwrvgnd_1
XTAP_167 vssd1 vccd1 sky130_fd_sc_hd__tapvpwrvgnd_1
XTAP_156 vssd1 vccd1 sky130_fd_sc_hd__tapvpwrvgnd_1
X_2105_ _2225_/CLK hold20/X vssd1 vssd1 vccd1 vccd1 hold19/A sky130_fd_sc_hd__dfxtp_1