*SPEF "ieee 1481-1999"
*DESIGN "user_project_wrapper"
*DATE "11:11:11 Fri 11 11, 1111"
*VENDOR "OpenRCX"
*PROGRAM "Parallel Extraction"
*VERSION "1.0"
*DESIGN_FLOW "NAME_SCOPE LOCAL" "PIN_CAP NONE"
*DIVIDER /
*DELIMITER :
*BUS_DELIMITER []
*T_UNIT 1 NS
*C_UNIT 1 PF
*R_UNIT 1 OHM
*L_UNIT 1 HENRY

*NAME_MAP
*1 analog_io[0]
*2 analog_io[10]
*3 analog_io[11]
*4 analog_io[12]
*5 analog_io[13]
*6 analog_io[14]
*7 analog_io[15]
*8 analog_io[16]
*9 analog_io[17]
*10 analog_io[18]
*11 analog_io[19]
*12 analog_io[1]
*13 analog_io[20]
*14 analog_io[21]
*15 analog_io[22]
*16 analog_io[23]
*17 analog_io[24]
*18 analog_io[25]
*19 analog_io[26]
*20 analog_io[27]
*21 analog_io[28]
*22 analog_io[2]
*23 analog_io[3]
*24 analog_io[4]
*25 analog_io[5]
*26 analog_io[6]
*27 analog_io[7]
*28 analog_io[8]
*29 analog_io[9]
*30 io_in[0]
*31 io_in[10]
*32 io_in[11]
*33 io_in[12]
*34 io_in[13]
*35 io_in[14]
*36 io_in[15]
*37 io_in[16]
*38 io_in[17]
*39 io_in[18]
*40 io_in[19]
*41 io_in[1]
*42 io_in[20]
*43 io_in[21]
*44 io_in[22]
*45 io_in[23]
*46 io_in[24]
*47 io_in[25]
*48 io_in[26]
*49 io_in[27]
*50 io_in[28]
*51 io_in[29]
*52 io_in[2]
*53 io_in[30]
*54 io_in[31]
*55 io_in[32]
*56 io_in[33]
*57 io_in[34]
*58 io_in[35]
*59 io_in[36]
*60 io_in[37]
*61 io_in[3]
*62 io_in[4]
*63 io_in[5]
*64 io_in[6]
*65 io_in[7]
*66 io_in[8]
*67 io_in[9]
*68 io_oeb[0]
*69 io_oeb[10]
*70 io_oeb[11]
*71 io_oeb[12]
*72 io_oeb[13]
*73 io_oeb[14]
*74 io_oeb[15]
*75 io_oeb[16]
*76 io_oeb[17]
*77 io_oeb[18]
*78 io_oeb[19]
*79 io_oeb[1]
*80 io_oeb[20]
*81 io_oeb[21]
*82 io_oeb[22]
*83 io_oeb[23]
*84 io_oeb[24]
*85 io_oeb[25]
*86 io_oeb[26]
*87 io_oeb[27]
*88 io_oeb[28]
*89 io_oeb[29]
*90 io_oeb[2]
*91 io_oeb[30]
*92 io_oeb[31]
*93 io_oeb[32]
*94 io_oeb[33]
*95 io_oeb[34]
*96 io_oeb[35]
*97 io_oeb[36]
*98 io_oeb[37]
*99 io_oeb[3]
*100 io_oeb[4]
*101 io_oeb[5]
*102 io_oeb[6]
*103 io_oeb[7]
*104 io_oeb[8]
*105 io_oeb[9]
*106 io_out[0]
*107 io_out[10]
*108 io_out[11]
*109 io_out[12]
*110 io_out[13]
*111 io_out[14]
*112 io_out[15]
*113 io_out[16]
*114 io_out[17]
*115 io_out[18]
*116 io_out[19]
*117 io_out[1]
*118 io_out[20]
*119 io_out[21]
*120 io_out[22]
*121 io_out[23]
*122 io_out[24]
*123 io_out[25]
*124 io_out[26]
*125 io_out[27]
*126 io_out[28]
*127 io_out[29]
*128 io_out[2]
*129 io_out[30]
*130 io_out[31]
*131 io_out[32]
*132 io_out[33]
*133 io_out[34]
*134 io_out[35]
*135 io_out[36]
*136 io_out[37]
*137 io_out[3]
*138 io_out[4]
*139 io_out[5]
*140 io_out[6]
*141 io_out[7]
*142 io_out[8]
*143 io_out[9]
*144 la_data_in[0]
*145 la_data_in[100]
*146 la_data_in[101]
*147 la_data_in[102]
*148 la_data_in[103]
*149 la_data_in[104]
*150 la_data_in[105]
*151 la_data_in[106]
*152 la_data_in[107]
*153 la_data_in[108]
*154 la_data_in[109]
*155 la_data_in[10]
*156 la_data_in[110]
*157 la_data_in[111]
*158 la_data_in[112]
*159 la_data_in[113]
*160 la_data_in[114]
*161 la_data_in[115]
*162 la_data_in[116]
*163 la_data_in[117]
*164 la_data_in[118]
*165 la_data_in[119]
*166 la_data_in[11]
*167 la_data_in[120]
*168 la_data_in[121]
*169 la_data_in[122]
*170 la_data_in[123]
*171 la_data_in[124]
*172 la_data_in[125]
*173 la_data_in[126]
*174 la_data_in[127]
*175 la_data_in[12]
*176 la_data_in[13]
*177 la_data_in[14]
*178 la_data_in[15]
*179 la_data_in[16]
*180 la_data_in[17]
*181 la_data_in[18]
*182 la_data_in[19]
*183 la_data_in[1]
*184 la_data_in[20]
*185 la_data_in[21]
*186 la_data_in[22]
*187 la_data_in[23]
*188 la_data_in[24]
*189 la_data_in[25]
*190 la_data_in[26]
*191 la_data_in[27]
*192 la_data_in[28]
*193 la_data_in[29]
*194 la_data_in[2]
*195 la_data_in[30]
*196 la_data_in[31]
*197 la_data_in[32]
*198 la_data_in[33]
*199 la_data_in[34]
*200 la_data_in[35]
*201 la_data_in[36]
*202 la_data_in[37]
*203 la_data_in[38]
*204 la_data_in[39]
*205 la_data_in[3]
*206 la_data_in[40]
*207 la_data_in[41]
*208 la_data_in[42]
*209 la_data_in[43]
*210 la_data_in[44]
*211 la_data_in[45]
*212 la_data_in[46]
*213 la_data_in[47]
*214 la_data_in[48]
*215 la_data_in[49]
*216 la_data_in[4]
*217 la_data_in[50]
*218 la_data_in[51]
*219 la_data_in[52]
*220 la_data_in[53]
*221 la_data_in[54]
*222 la_data_in[55]
*223 la_data_in[56]
*224 la_data_in[57]
*225 la_data_in[58]
*226 la_data_in[59]
*227 la_data_in[5]
*228 la_data_in[60]
*229 la_data_in[61]
*230 la_data_in[62]
*231 la_data_in[63]
*232 la_data_in[64]
*233 la_data_in[65]
*234 la_data_in[66]
*235 la_data_in[67]
*236 la_data_in[68]
*237 la_data_in[69]
*238 la_data_in[6]
*239 la_data_in[70]
*240 la_data_in[71]
*241 la_data_in[72]
*242 la_data_in[73]
*243 la_data_in[74]
*244 la_data_in[75]
*245 la_data_in[76]
*246 la_data_in[77]
*247 la_data_in[78]
*248 la_data_in[79]
*249 la_data_in[7]
*250 la_data_in[80]
*251 la_data_in[81]
*252 la_data_in[82]
*253 la_data_in[83]
*254 la_data_in[84]
*255 la_data_in[85]
*256 la_data_in[86]
*257 la_data_in[87]
*258 la_data_in[88]
*259 la_data_in[89]
*260 la_data_in[8]
*261 la_data_in[90]
*262 la_data_in[91]
*263 la_data_in[92]
*264 la_data_in[93]
*265 la_data_in[94]
*266 la_data_in[95]
*267 la_data_in[96]
*268 la_data_in[97]
*269 la_data_in[98]
*270 la_data_in[99]
*271 la_data_in[9]
*272 la_data_out[0]
*273 la_data_out[100]
*274 la_data_out[101]
*275 la_data_out[102]
*276 la_data_out[103]
*277 la_data_out[104]
*278 la_data_out[105]
*279 la_data_out[106]
*280 la_data_out[107]
*281 la_data_out[108]
*282 la_data_out[109]
*283 la_data_out[10]
*284 la_data_out[110]
*285 la_data_out[111]
*286 la_data_out[112]
*287 la_data_out[113]
*288 la_data_out[114]
*289 la_data_out[115]
*290 la_data_out[116]
*291 la_data_out[117]
*292 la_data_out[118]
*293 la_data_out[119]
*294 la_data_out[11]
*295 la_data_out[120]
*296 la_data_out[121]
*297 la_data_out[122]
*298 la_data_out[123]
*299 la_data_out[124]
*300 la_data_out[125]
*301 la_data_out[126]
*302 la_data_out[127]
*303 la_data_out[12]
*304 la_data_out[13]
*305 la_data_out[14]
*306 la_data_out[15]
*307 la_data_out[16]
*308 la_data_out[17]
*309 la_data_out[18]
*310 la_data_out[19]
*311 la_data_out[1]
*312 la_data_out[20]
*313 la_data_out[21]
*314 la_data_out[22]
*315 la_data_out[23]
*316 la_data_out[24]
*317 la_data_out[25]
*318 la_data_out[26]
*319 la_data_out[27]
*320 la_data_out[28]
*321 la_data_out[29]
*322 la_data_out[2]
*323 la_data_out[30]
*324 la_data_out[31]
*325 la_data_out[32]
*326 la_data_out[33]
*327 la_data_out[34]
*328 la_data_out[35]
*329 la_data_out[36]
*330 la_data_out[37]
*331 la_data_out[38]
*332 la_data_out[39]
*333 la_data_out[3]
*334 la_data_out[40]
*335 la_data_out[41]
*336 la_data_out[42]
*337 la_data_out[43]
*338 la_data_out[44]
*339 la_data_out[45]
*340 la_data_out[46]
*341 la_data_out[47]
*342 la_data_out[48]
*343 la_data_out[49]
*344 la_data_out[4]
*345 la_data_out[50]
*346 la_data_out[51]
*347 la_data_out[52]
*348 la_data_out[53]
*349 la_data_out[54]
*350 la_data_out[55]
*351 la_data_out[56]
*352 la_data_out[57]
*353 la_data_out[58]
*354 la_data_out[59]
*355 la_data_out[5]
*356 la_data_out[60]
*357 la_data_out[61]
*358 la_data_out[62]
*359 la_data_out[63]
*360 la_data_out[64]
*361 la_data_out[65]
*362 la_data_out[66]
*363 la_data_out[67]
*364 la_data_out[68]
*365 la_data_out[69]
*366 la_data_out[6]
*367 la_data_out[70]
*368 la_data_out[71]
*369 la_data_out[72]
*370 la_data_out[73]
*371 la_data_out[74]
*372 la_data_out[75]
*373 la_data_out[76]
*374 la_data_out[77]
*375 la_data_out[78]
*376 la_data_out[79]
*377 la_data_out[7]
*378 la_data_out[80]
*379 la_data_out[81]
*380 la_data_out[82]
*381 la_data_out[83]
*382 la_data_out[84]
*383 la_data_out[85]
*384 la_data_out[86]
*385 la_data_out[87]
*386 la_data_out[88]
*387 la_data_out[89]
*388 la_data_out[8]
*389 la_data_out[90]
*390 la_data_out[91]
*391 la_data_out[92]
*392 la_data_out[93]
*393 la_data_out[94]
*394 la_data_out[95]
*395 la_data_out[96]
*396 la_data_out[97]
*397 la_data_out[98]
*398 la_data_out[99]
*399 la_data_out[9]
*400 la_oenb[0]
*401 la_oenb[100]
*402 la_oenb[101]
*403 la_oenb[102]
*404 la_oenb[103]
*405 la_oenb[104]
*406 la_oenb[105]
*407 la_oenb[106]
*408 la_oenb[107]
*409 la_oenb[108]
*410 la_oenb[109]
*411 la_oenb[10]
*412 la_oenb[110]
*413 la_oenb[111]
*414 la_oenb[112]
*415 la_oenb[113]
*416 la_oenb[114]
*417 la_oenb[115]
*418 la_oenb[116]
*419 la_oenb[117]
*420 la_oenb[118]
*421 la_oenb[119]
*422 la_oenb[11]
*423 la_oenb[120]
*424 la_oenb[121]
*425 la_oenb[122]
*426 la_oenb[123]
*427 la_oenb[124]
*428 la_oenb[125]
*429 la_oenb[126]
*430 la_oenb[127]
*431 la_oenb[12]
*432 la_oenb[13]
*433 la_oenb[14]
*434 la_oenb[15]
*435 la_oenb[16]
*436 la_oenb[17]
*437 la_oenb[18]
*438 la_oenb[19]
*439 la_oenb[1]
*440 la_oenb[20]
*441 la_oenb[21]
*442 la_oenb[22]
*443 la_oenb[23]
*444 la_oenb[24]
*445 la_oenb[25]
*446 la_oenb[26]
*447 la_oenb[27]
*448 la_oenb[28]
*449 la_oenb[29]
*450 la_oenb[2]
*451 la_oenb[30]
*452 la_oenb[31]
*453 la_oenb[32]
*454 la_oenb[33]
*455 la_oenb[34]
*456 la_oenb[35]
*457 la_oenb[36]
*458 la_oenb[37]
*459 la_oenb[38]
*460 la_oenb[39]
*461 la_oenb[3]
*462 la_oenb[40]
*463 la_oenb[41]
*464 la_oenb[42]
*465 la_oenb[43]
*466 la_oenb[44]
*467 la_oenb[45]
*468 la_oenb[46]
*469 la_oenb[47]
*470 la_oenb[48]
*471 la_oenb[49]
*472 la_oenb[4]
*473 la_oenb[50]
*474 la_oenb[51]
*475 la_oenb[52]
*476 la_oenb[53]
*477 la_oenb[54]
*478 la_oenb[55]
*479 la_oenb[56]
*480 la_oenb[57]
*481 la_oenb[58]
*482 la_oenb[59]
*483 la_oenb[5]
*484 la_oenb[60]
*485 la_oenb[61]
*486 la_oenb[62]
*487 la_oenb[63]
*488 la_oenb[64]
*489 la_oenb[65]
*490 la_oenb[66]
*491 la_oenb[67]
*492 la_oenb[68]
*493 la_oenb[69]
*494 la_oenb[6]
*495 la_oenb[70]
*496 la_oenb[71]
*497 la_oenb[72]
*498 la_oenb[73]
*499 la_oenb[74]
*500 la_oenb[75]
*501 la_oenb[76]
*502 la_oenb[77]
*503 la_oenb[78]
*504 la_oenb[79]
*505 la_oenb[7]
*506 la_oenb[80]
*507 la_oenb[81]
*508 la_oenb[82]
*509 la_oenb[83]
*510 la_oenb[84]
*511 la_oenb[85]
*512 la_oenb[86]
*513 la_oenb[87]
*514 la_oenb[88]
*515 la_oenb[89]
*516 la_oenb[8]
*517 la_oenb[90]
*518 la_oenb[91]
*519 la_oenb[92]
*520 la_oenb[93]
*521 la_oenb[94]
*522 la_oenb[95]
*523 la_oenb[96]
*524 la_oenb[97]
*525 la_oenb[98]
*526 la_oenb[99]
*527 la_oenb[9]
*528 user_clock2
*529 user_irq[0]
*530 user_irq[1]
*531 user_irq[2]
*540 wb_clk_i
*541 wb_rst_i
*542 wbs_ack_o
*543 wbs_adr_i[0]
*544 wbs_adr_i[10]
*545 wbs_adr_i[11]
*546 wbs_adr_i[12]
*547 wbs_adr_i[13]
*548 wbs_adr_i[14]
*549 wbs_adr_i[15]
*550 wbs_adr_i[16]
*551 wbs_adr_i[17]
*552 wbs_adr_i[18]
*553 wbs_adr_i[19]
*554 wbs_adr_i[1]
*555 wbs_adr_i[20]
*556 wbs_adr_i[21]
*557 wbs_adr_i[22]
*558 wbs_adr_i[23]
*559 wbs_adr_i[24]
*560 wbs_adr_i[25]
*561 wbs_adr_i[26]
*562 wbs_adr_i[27]
*563 wbs_adr_i[28]
*564 wbs_adr_i[29]
*565 wbs_adr_i[2]
*566 wbs_adr_i[30]
*567 wbs_adr_i[31]
*568 wbs_adr_i[3]
*569 wbs_adr_i[4]
*570 wbs_adr_i[5]
*571 wbs_adr_i[6]
*572 wbs_adr_i[7]
*573 wbs_adr_i[8]
*574 wbs_adr_i[9]
*575 wbs_cyc_i
*576 wbs_dat_i[0]
*577 wbs_dat_i[10]
*578 wbs_dat_i[11]
*579 wbs_dat_i[12]
*580 wbs_dat_i[13]
*581 wbs_dat_i[14]
*582 wbs_dat_i[15]
*583 wbs_dat_i[16]
*584 wbs_dat_i[17]
*585 wbs_dat_i[18]
*586 wbs_dat_i[19]
*587 wbs_dat_i[1]
*588 wbs_dat_i[20]
*589 wbs_dat_i[21]
*590 wbs_dat_i[22]
*591 wbs_dat_i[23]
*592 wbs_dat_i[24]
*593 wbs_dat_i[25]
*594 wbs_dat_i[26]
*595 wbs_dat_i[27]
*596 wbs_dat_i[28]
*597 wbs_dat_i[29]
*598 wbs_dat_i[2]
*599 wbs_dat_i[30]
*600 wbs_dat_i[31]
*601 wbs_dat_i[3]
*602 wbs_dat_i[4]
*603 wbs_dat_i[5]
*604 wbs_dat_i[6]
*605 wbs_dat_i[7]
*606 wbs_dat_i[8]
*607 wbs_dat_i[9]
*608 wbs_dat_o[0]
*609 wbs_dat_o[10]
*610 wbs_dat_o[11]
*611 wbs_dat_o[12]
*612 wbs_dat_o[13]
*613 wbs_dat_o[14]
*614 wbs_dat_o[15]
*615 wbs_dat_o[16]
*616 wbs_dat_o[17]
*617 wbs_dat_o[18]
*618 wbs_dat_o[19]
*619 wbs_dat_o[1]
*620 wbs_dat_o[20]
*621 wbs_dat_o[21]
*622 wbs_dat_o[22]
*623 wbs_dat_o[23]
*624 wbs_dat_o[24]
*625 wbs_dat_o[25]
*626 wbs_dat_o[26]
*627 wbs_dat_o[27]
*628 wbs_dat_o[28]
*629 wbs_dat_o[29]
*630 wbs_dat_o[2]
*631 wbs_dat_o[30]
*632 wbs_dat_o[31]
*633 wbs_dat_o[3]
*634 wbs_dat_o[4]
*635 wbs_dat_o[5]
*636 wbs_dat_o[6]
*637 wbs_dat_o[7]
*638 wbs_dat_o[8]
*639 wbs_dat_o[9]
*640 wbs_sel_i[0]
*641 wbs_sel_i[1]
*642 wbs_sel_i[2]
*643 wbs_sel_i[3]
*644 wbs_stb_i
*645 wbs_we_i
*646 curr_PC\[0\]
*647 curr_PC\[10\]
*648 curr_PC\[11\]
*649 curr_PC\[12\]
*650 curr_PC\[13\]
*651 curr_PC\[14\]
*652 curr_PC\[15\]
*653 curr_PC\[16\]
*654 curr_PC\[17\]
*655 curr_PC\[18\]
*656 curr_PC\[19\]
*657 curr_PC\[1\]
*658 curr_PC\[20\]
*659 curr_PC\[21\]
*660 curr_PC\[22\]
*661 curr_PC\[23\]
*662 curr_PC\[24\]
*663 curr_PC\[25\]
*664 curr_PC\[26\]
*665 curr_PC\[27\]
*666 curr_PC\[2\]
*667 curr_PC\[3\]
*668 curr_PC\[4\]
*669 curr_PC\[5\]
*670 curr_PC\[6\]
*671 curr_PC\[7\]
*672 curr_PC\[8\]
*673 curr_PC\[9\]
*674 custom_settings\[0\]
*675 custom_settings\[10\]
*676 custom_settings\[11\]
*677 custom_settings\[12\]
*678 custom_settings\[13\]
*679 custom_settings\[14\]
*680 custom_settings\[15\]
*681 custom_settings\[16\]
*682 custom_settings\[17\]
*683 custom_settings\[18\]
*684 custom_settings\[19\]
*685 custom_settings\[1\]
*686 custom_settings\[20\]
*687 custom_settings\[21\]
*688 custom_settings\[22\]
*689 custom_settings\[23\]
*690 custom_settings\[24\]
*691 custom_settings\[25\]
*692 custom_settings\[26\]
*693 custom_settings\[27\]
*694 custom_settings\[28\]
*695 custom_settings\[29\]
*696 custom_settings\[2\]
*697 custom_settings\[30\]
*698 custom_settings\[31\]
*699 custom_settings\[3\]
*700 custom_settings\[4\]
*701 custom_settings\[5\]
*702 custom_settings\[6\]
*703 custom_settings\[7\]
*704 custom_settings\[8\]
*705 custom_settings\[9\]
*706 dest_idx0\[0\]
*707 dest_idx0\[1\]
*708 dest_idx0\[2\]
*709 dest_idx0\[3\]
*710 dest_idx0\[4\]
*711 dest_idx1\[0\]
*712 dest_idx1\[1\]
*713 dest_idx1\[2\]
*714 dest_idx1\[3\]
*715 dest_idx1\[4\]
*716 dest_idx2\[0\]
*717 dest_idx2\[1\]
*718 dest_idx2\[2\]
*719 dest_idx2\[3\]
*720 dest_idx2\[4\]
*721 dest_mask0\[0\]
*722 dest_mask0\[1\]
*723 dest_mask1\[0\]
*724 dest_mask1\[1\]
*725 dest_mask2\[0\]
*726 dest_mask2\[1\]
*727 dest_pred0\[0\]
*728 dest_pred0\[1\]
*729 dest_pred0\[2\]
*730 dest_pred1\[0\]
*731 dest_pred1\[1\]
*732 dest_pred1\[2\]
*733 dest_pred2\[0\]
*734 dest_pred2\[1\]
*735 dest_pred2\[2\]
*736 dest_pred_val0
*737 dest_pred_val1
*738 dest_pred_val2
*739 dest_val0\[0\]
*740 dest_val0\[10\]
*741 dest_val0\[11\]
*742 dest_val0\[12\]
*743 dest_val0\[13\]
*744 dest_val0\[14\]
*745 dest_val0\[15\]
*746 dest_val0\[16\]
*747 dest_val0\[17\]
*748 dest_val0\[18\]
*749 dest_val0\[19\]
*750 dest_val0\[1\]
*751 dest_val0\[20\]
*752 dest_val0\[21\]
*753 dest_val0\[22\]
*754 dest_val0\[23\]
*755 dest_val0\[24\]
*756 dest_val0\[25\]
*757 dest_val0\[26\]
*758 dest_val0\[27\]
*759 dest_val0\[28\]
*760 dest_val0\[29\]
*761 dest_val0\[2\]
*762 dest_val0\[30\]
*763 dest_val0\[31\]
*764 dest_val0\[3\]
*765 dest_val0\[4\]
*766 dest_val0\[5\]
*767 dest_val0\[6\]
*768 dest_val0\[7\]
*769 dest_val0\[8\]
*770 dest_val0\[9\]
*771 dest_val1\[0\]
*772 dest_val1\[10\]
*773 dest_val1\[11\]
*774 dest_val1\[12\]
*775 dest_val1\[13\]
*776 dest_val1\[14\]
*777 dest_val1\[15\]
*778 dest_val1\[16\]
*779 dest_val1\[17\]
*780 dest_val1\[18\]
*781 dest_val1\[19\]
*782 dest_val1\[1\]
*783 dest_val1\[20\]
*784 dest_val1\[21\]
*785 dest_val1\[22\]
*786 dest_val1\[23\]
*787 dest_val1\[24\]
*788 dest_val1\[25\]
*789 dest_val1\[26\]
*790 dest_val1\[27\]
*791 dest_val1\[28\]
*792 dest_val1\[29\]
*793 dest_val1\[2\]
*794 dest_val1\[30\]
*795 dest_val1\[31\]
*796 dest_val1\[3\]
*797 dest_val1\[4\]
*798 dest_val1\[5\]
*799 dest_val1\[6\]
*800 dest_val1\[7\]
*801 dest_val1\[8\]
*802 dest_val1\[9\]
*803 dest_val2\[0\]
*804 dest_val2\[10\]
*805 dest_val2\[11\]
*806 dest_val2\[12\]
*807 dest_val2\[13\]
*808 dest_val2\[14\]
*809 dest_val2\[15\]
*810 dest_val2\[16\]
*811 dest_val2\[17\]
*812 dest_val2\[18\]
*813 dest_val2\[19\]
*814 dest_val2\[1\]
*815 dest_val2\[20\]
*816 dest_val2\[21\]
*817 dest_val2\[22\]
*818 dest_val2\[23\]
*819 dest_val2\[24\]
*820 dest_val2\[25\]
*821 dest_val2\[26\]
*822 dest_val2\[27\]
*823 dest_val2\[28\]
*824 dest_val2\[29\]
*825 dest_val2\[2\]
*826 dest_val2\[30\]
*827 dest_val2\[31\]
*828 dest_val2\[3\]
*829 dest_val2\[4\]
*830 dest_val2\[5\]
*831 dest_val2\[6\]
*832 dest_val2\[7\]
*833 dest_val2\[8\]
*834 dest_val2\[9\]
*835 eu0_busy
*836 eu0_instruction\[0\]
*837 eu0_instruction\[10\]
*838 eu0_instruction\[11\]
*839 eu0_instruction\[12\]
*840 eu0_instruction\[13\]
*841 eu0_instruction\[14\]
*842 eu0_instruction\[15\]
*843 eu0_instruction\[16\]
*844 eu0_instruction\[17\]
*845 eu0_instruction\[18\]
*846 eu0_instruction\[19\]
*847 eu0_instruction\[1\]
*848 eu0_instruction\[20\]
*849 eu0_instruction\[21\]
*850 eu0_instruction\[22\]
*851 eu0_instruction\[23\]
*852 eu0_instruction\[24\]
*853 eu0_instruction\[25\]
*854 eu0_instruction\[26\]
*855 eu0_instruction\[27\]
*856 eu0_instruction\[28\]
*857 eu0_instruction\[29\]
*858 eu0_instruction\[2\]
*859 eu0_instruction\[30\]
*860 eu0_instruction\[31\]
*861 eu0_instruction\[32\]
*862 eu0_instruction\[33\]
*863 eu0_instruction\[34\]
*864 eu0_instruction\[35\]
*865 eu0_instruction\[36\]
*866 eu0_instruction\[37\]
*867 eu0_instruction\[38\]
*868 eu0_instruction\[39\]
*869 eu0_instruction\[3\]
*870 eu0_instruction\[40\]
*871 eu0_instruction\[41\]
*872 eu0_instruction\[4\]
*873 eu0_instruction\[5\]
*874 eu0_instruction\[6\]
*875 eu0_instruction\[7\]
*876 eu0_instruction\[8\]
*877 eu0_instruction\[9\]
*878 eu1_busy
*879 eu1_instruction\[0\]
*880 eu1_instruction\[10\]
*881 eu1_instruction\[11\]
*882 eu1_instruction\[12\]
*883 eu1_instruction\[13\]
*884 eu1_instruction\[14\]
*885 eu1_instruction\[15\]
*886 eu1_instruction\[16\]
*887 eu1_instruction\[17\]
*888 eu1_instruction\[18\]
*889 eu1_instruction\[19\]
*890 eu1_instruction\[1\]
*891 eu1_instruction\[20\]
*892 eu1_instruction\[21\]
*893 eu1_instruction\[22\]
*894 eu1_instruction\[23\]
*895 eu1_instruction\[24\]
*896 eu1_instruction\[25\]
*897 eu1_instruction\[26\]
*898 eu1_instruction\[27\]
*899 eu1_instruction\[28\]
*900 eu1_instruction\[29\]
*901 eu1_instruction\[2\]
*902 eu1_instruction\[30\]
*903 eu1_instruction\[31\]
*904 eu1_instruction\[32\]
*905 eu1_instruction\[33\]
*906 eu1_instruction\[34\]
*907 eu1_instruction\[35\]
*908 eu1_instruction\[36\]
*909 eu1_instruction\[37\]
*910 eu1_instruction\[38\]
*911 eu1_instruction\[39\]
*912 eu1_instruction\[3\]
*913 eu1_instruction\[40\]
*914 eu1_instruction\[41\]
*915 eu1_instruction\[4\]
*916 eu1_instruction\[5\]
*917 eu1_instruction\[6\]
*918 eu1_instruction\[7\]
*919 eu1_instruction\[8\]
*920 eu1_instruction\[9\]
*921 eu2_busy
*922 eu2_instruction\[0\]
*923 eu2_instruction\[10\]
*924 eu2_instruction\[11\]
*925 eu2_instruction\[12\]
*926 eu2_instruction\[13\]
*927 eu2_instruction\[14\]
*928 eu2_instruction\[15\]
*929 eu2_instruction\[16\]
*930 eu2_instruction\[17\]
*931 eu2_instruction\[18\]
*932 eu2_instruction\[19\]
*933 eu2_instruction\[1\]
*934 eu2_instruction\[20\]
*935 eu2_instruction\[21\]
*936 eu2_instruction\[22\]
*937 eu2_instruction\[23\]
*938 eu2_instruction\[24\]
*939 eu2_instruction\[25\]
*940 eu2_instruction\[26\]
*941 eu2_instruction\[27\]
*942 eu2_instruction\[28\]
*943 eu2_instruction\[29\]
*944 eu2_instruction\[2\]
*945 eu2_instruction\[30\]
*946 eu2_instruction\[31\]
*947 eu2_instruction\[32\]
*948 eu2_instruction\[33\]
*949 eu2_instruction\[34\]
*950 eu2_instruction\[35\]
*951 eu2_instruction\[36\]
*952 eu2_instruction\[37\]
*953 eu2_instruction\[38\]
*954 eu2_instruction\[39\]
*955 eu2_instruction\[3\]
*956 eu2_instruction\[40\]
*957 eu2_instruction\[41\]
*958 eu2_instruction\[4\]
*959 eu2_instruction\[5\]
*960 eu2_instruction\[6\]
*961 eu2_instruction\[7\]
*962 eu2_instruction\[8\]
*963 eu2_instruction\[9\]
*964 io_oeb_scrapcpu\[0\]
*965 io_oeb_scrapcpu\[10\]
*966 io_oeb_scrapcpu\[11\]
*967 io_oeb_scrapcpu\[12\]
*968 io_oeb_scrapcpu\[13\]
*969 io_oeb_scrapcpu\[14\]
*970 io_oeb_scrapcpu\[15\]
*971 io_oeb_scrapcpu\[16\]
*972 io_oeb_scrapcpu\[17\]
*973 io_oeb_scrapcpu\[18\]
*974 io_oeb_scrapcpu\[19\]
*975 io_oeb_scrapcpu\[1\]
*976 io_oeb_scrapcpu\[20\]
*977 io_oeb_scrapcpu\[21\]
*978 io_oeb_scrapcpu\[22\]
*979 io_oeb_scrapcpu\[23\]
*980 io_oeb_scrapcpu\[24\]
*981 io_oeb_scrapcpu\[25\]
*982 io_oeb_scrapcpu\[26\]
*983 io_oeb_scrapcpu\[27\]
*984 io_oeb_scrapcpu\[28\]
*985 io_oeb_scrapcpu\[29\]
*986 io_oeb_scrapcpu\[2\]
*987 io_oeb_scrapcpu\[30\]
*988 io_oeb_scrapcpu\[31\]
*989 io_oeb_scrapcpu\[32\]
*990 io_oeb_scrapcpu\[33\]
*991 io_oeb_scrapcpu\[34\]
*992 io_oeb_scrapcpu\[35\]
*993 io_oeb_scrapcpu\[3\]
*994 io_oeb_scrapcpu\[4\]
*995 io_oeb_scrapcpu\[5\]
*996 io_oeb_scrapcpu\[6\]
*997 io_oeb_scrapcpu\[7\]
*998 io_oeb_scrapcpu\[8\]
*999 io_oeb_scrapcpu\[9\]
*1000 io_oeb_vliw\[0\]
*1001 io_oeb_vliw\[10\]
*1002 io_oeb_vliw\[11\]
*1003 io_oeb_vliw\[12\]
*1004 io_oeb_vliw\[13\]
*1005 io_oeb_vliw\[14\]
*1006 io_oeb_vliw\[15\]
*1007 io_oeb_vliw\[16\]
*1008 io_oeb_vliw\[17\]
*1009 io_oeb_vliw\[18\]
*1010 io_oeb_vliw\[19\]
*1011 io_oeb_vliw\[1\]
*1012 io_oeb_vliw\[20\]
*1013 io_oeb_vliw\[21\]
*1014 io_oeb_vliw\[22\]
*1015 io_oeb_vliw\[23\]
*1016 io_oeb_vliw\[24\]
*1017 io_oeb_vliw\[25\]
*1018 io_oeb_vliw\[26\]
*1019 io_oeb_vliw\[27\]
*1020 io_oeb_vliw\[28\]
*1021 io_oeb_vliw\[29\]
*1022 io_oeb_vliw\[2\]
*1023 io_oeb_vliw\[30\]
*1024 io_oeb_vliw\[31\]
*1025 io_oeb_vliw\[32\]
*1026 io_oeb_vliw\[33\]
*1027 io_oeb_vliw\[34\]
*1028 io_oeb_vliw\[35\]
*1029 io_oeb_vliw\[3\]
*1030 io_oeb_vliw\[4\]
*1031 io_oeb_vliw\[5\]
*1032 io_oeb_vliw\[6\]
*1033 io_oeb_vliw\[7\]
*1034 io_oeb_vliw\[8\]
*1035 io_oeb_vliw\[9\]
*1036 io_oeb_z80\[0\]
*1037 io_oeb_z80\[10\]
*1038 io_oeb_z80\[11\]
*1039 io_oeb_z80\[12\]
*1040 io_oeb_z80\[13\]
*1041 io_oeb_z80\[14\]
*1042 io_oeb_z80\[15\]
*1043 io_oeb_z80\[16\]
*1044 io_oeb_z80\[17\]
*1045 io_oeb_z80\[18\]
*1046 io_oeb_z80\[19\]
*1047 io_oeb_z80\[1\]
*1048 io_oeb_z80\[20\]
*1049 io_oeb_z80\[21\]
*1050 io_oeb_z80\[22\]
*1051 io_oeb_z80\[23\]
*1052 io_oeb_z80\[24\]
*1053 io_oeb_z80\[25\]
*1054 io_oeb_z80\[26\]
*1055 io_oeb_z80\[27\]
*1056 io_oeb_z80\[28\]
*1057 io_oeb_z80\[29\]
*1058 io_oeb_z80\[2\]
*1059 io_oeb_z80\[30\]
*1060 io_oeb_z80\[31\]
*1061 io_oeb_z80\[32\]
*1062 io_oeb_z80\[33\]
*1063 io_oeb_z80\[34\]
*1064 io_oeb_z80\[35\]
*1065 io_oeb_z80\[3\]
*1066 io_oeb_z80\[4\]
*1067 io_oeb_z80\[5\]
*1068 io_oeb_z80\[6\]
*1069 io_oeb_z80\[7\]
*1070 io_oeb_z80\[8\]
*1071 io_oeb_z80\[9\]
*1072 io_out_scrapcpu\[0\]
*1073 io_out_scrapcpu\[10\]
*1074 io_out_scrapcpu\[11\]
*1075 io_out_scrapcpu\[12\]
*1076 io_out_scrapcpu\[13\]
*1077 io_out_scrapcpu\[14\]
*1078 io_out_scrapcpu\[15\]
*1079 io_out_scrapcpu\[16\]
*1080 io_out_scrapcpu\[17\]
*1081 io_out_scrapcpu\[18\]
*1082 io_out_scrapcpu\[19\]
*1083 io_out_scrapcpu\[1\]
*1084 io_out_scrapcpu\[20\]
*1085 io_out_scrapcpu\[21\]
*1086 io_out_scrapcpu\[22\]
*1087 io_out_scrapcpu\[23\]
*1088 io_out_scrapcpu\[24\]
*1089 io_out_scrapcpu\[25\]
*1090 io_out_scrapcpu\[26\]
*1091 io_out_scrapcpu\[27\]
*1092 io_out_scrapcpu\[28\]
*1093 io_out_scrapcpu\[29\]
*1094 io_out_scrapcpu\[2\]
*1095 io_out_scrapcpu\[30\]
*1096 io_out_scrapcpu\[31\]
*1097 io_out_scrapcpu\[32\]
*1098 io_out_scrapcpu\[33\]
*1099 io_out_scrapcpu\[34\]
*1100 io_out_scrapcpu\[35\]
*1101 io_out_scrapcpu\[3\]
*1102 io_out_scrapcpu\[4\]
*1103 io_out_scrapcpu\[5\]
*1104 io_out_scrapcpu\[6\]
*1105 io_out_scrapcpu\[7\]
*1106 io_out_scrapcpu\[8\]
*1107 io_out_scrapcpu\[9\]
*1108 io_out_vliw\[0\]
*1109 io_out_vliw\[10\]
*1110 io_out_vliw\[11\]
*1111 io_out_vliw\[12\]
*1112 io_out_vliw\[13\]
*1113 io_out_vliw\[14\]
*1114 io_out_vliw\[15\]
*1115 io_out_vliw\[16\]
*1116 io_out_vliw\[17\]
*1117 io_out_vliw\[18\]
*1118 io_out_vliw\[19\]
*1119 io_out_vliw\[1\]
*1120 io_out_vliw\[20\]
*1121 io_out_vliw\[21\]
*1122 io_out_vliw\[22\]
*1123 io_out_vliw\[23\]
*1124 io_out_vliw\[24\]
*1125 io_out_vliw\[25\]
*1126 io_out_vliw\[26\]
*1127 io_out_vliw\[27\]
*1128 io_out_vliw\[28\]
*1129 io_out_vliw\[29\]
*1130 io_out_vliw\[2\]
*1131 io_out_vliw\[30\]
*1132 io_out_vliw\[31\]
*1133 io_out_vliw\[32\]
*1134 io_out_vliw\[33\]
*1135 io_out_vliw\[34\]
*1136 io_out_vliw\[35\]
*1137 io_out_vliw\[3\]
*1138 io_out_vliw\[4\]
*1139 io_out_vliw\[5\]
*1140 io_out_vliw\[6\]
*1141 io_out_vliw\[7\]
*1142 io_out_vliw\[8\]
*1143 io_out_vliw\[9\]
*1144 io_out_z80\[0\]
*1145 io_out_z80\[10\]
*1146 io_out_z80\[11\]
*1147 io_out_z80\[12\]
*1148 io_out_z80\[13\]
*1149 io_out_z80\[14\]
*1150 io_out_z80\[15\]
*1151 io_out_z80\[16\]
*1152 io_out_z80\[17\]
*1153 io_out_z80\[18\]
*1154 io_out_z80\[19\]
*1155 io_out_z80\[1\]
*1156 io_out_z80\[20\]
*1157 io_out_z80\[21\]
*1158 io_out_z80\[22\]
*1159 io_out_z80\[23\]
*1160 io_out_z80\[24\]
*1161 io_out_z80\[25\]
*1162 io_out_z80\[26\]
*1163 io_out_z80\[27\]
*1164 io_out_z80\[28\]
*1165 io_out_z80\[29\]
*1166 io_out_z80\[2\]
*1167 io_out_z80\[30\]
*1168 io_out_z80\[31\]
*1169 io_out_z80\[32\]
*1170 io_out_z80\[33\]
*1171 io_out_z80\[34\]
*1172 io_out_z80\[35\]
*1173 io_out_z80\[3\]
*1174 io_out_z80\[4\]
*1175 io_out_z80\[5\]
*1176 io_out_z80\[6\]
*1177 io_out_z80\[7\]
*1178 io_out_z80\[8\]
*1179 io_out_z80\[9\]
*1180 is_load0
*1181 is_load1
*1182 is_load2
*1183 is_store0
*1184 is_store1
*1185 is_store2
*1186 loadstore_address0\[0\]
*1187 loadstore_address0\[10\]
*1188 loadstore_address0\[11\]
*1189 loadstore_address0\[12\]
*1190 loadstore_address0\[13\]
*1191 loadstore_address0\[14\]
*1192 loadstore_address0\[15\]
*1193 loadstore_address0\[16\]
*1194 loadstore_address0\[17\]
*1195 loadstore_address0\[18\]
*1196 loadstore_address0\[19\]
*1197 loadstore_address0\[1\]
*1198 loadstore_address0\[20\]
*1199 loadstore_address0\[21\]
*1200 loadstore_address0\[22\]
*1201 loadstore_address0\[23\]
*1202 loadstore_address0\[24\]
*1203 loadstore_address0\[25\]
*1204 loadstore_address0\[26\]
*1205 loadstore_address0\[27\]
*1206 loadstore_address0\[28\]
*1207 loadstore_address0\[29\]
*1208 loadstore_address0\[2\]
*1209 loadstore_address0\[30\]
*1210 loadstore_address0\[31\]
*1211 loadstore_address0\[3\]
*1212 loadstore_address0\[4\]
*1213 loadstore_address0\[5\]
*1214 loadstore_address0\[6\]
*1215 loadstore_address0\[7\]
*1216 loadstore_address0\[8\]
*1217 loadstore_address0\[9\]
*1218 loadstore_address1\[0\]
*1219 loadstore_address1\[10\]
*1220 loadstore_address1\[11\]
*1221 loadstore_address1\[12\]
*1222 loadstore_address1\[13\]
*1223 loadstore_address1\[14\]
*1224 loadstore_address1\[15\]
*1225 loadstore_address1\[16\]
*1226 loadstore_address1\[17\]
*1227 loadstore_address1\[18\]
*1228 loadstore_address1\[19\]
*1229 loadstore_address1\[1\]
*1230 loadstore_address1\[20\]
*1231 loadstore_address1\[21\]
*1232 loadstore_address1\[22\]
*1233 loadstore_address1\[23\]
*1234 loadstore_address1\[24\]
*1235 loadstore_address1\[25\]
*1236 loadstore_address1\[26\]
*1237 loadstore_address1\[27\]
*1238 loadstore_address1\[28\]
*1239 loadstore_address1\[29\]
*1240 loadstore_address1\[2\]
*1241 loadstore_address1\[30\]
*1242 loadstore_address1\[31\]
*1243 loadstore_address1\[3\]
*1244 loadstore_address1\[4\]
*1245 loadstore_address1\[5\]
*1246 loadstore_address1\[6\]
*1247 loadstore_address1\[7\]
*1248 loadstore_address1\[8\]
*1249 loadstore_address1\[9\]
*1250 loadstore_address2\[0\]
*1251 loadstore_address2\[10\]
*1252 loadstore_address2\[11\]
*1253 loadstore_address2\[12\]
*1254 loadstore_address2\[13\]
*1255 loadstore_address2\[14\]
*1256 loadstore_address2\[15\]
*1257 loadstore_address2\[16\]
*1258 loadstore_address2\[17\]
*1259 loadstore_address2\[18\]
*1260 loadstore_address2\[19\]
*1261 loadstore_address2\[1\]
*1262 loadstore_address2\[20\]
*1263 loadstore_address2\[21\]
*1264 loadstore_address2\[22\]
*1265 loadstore_address2\[23\]
*1266 loadstore_address2\[24\]
*1267 loadstore_address2\[25\]
*1268 loadstore_address2\[26\]
*1269 loadstore_address2\[27\]
*1270 loadstore_address2\[28\]
*1271 loadstore_address2\[29\]
*1272 loadstore_address2\[2\]
*1273 loadstore_address2\[30\]
*1274 loadstore_address2\[31\]
*1275 loadstore_address2\[3\]
*1276 loadstore_address2\[4\]
*1277 loadstore_address2\[5\]
*1278 loadstore_address2\[6\]
*1279 loadstore_address2\[7\]
*1280 loadstore_address2\[8\]
*1281 loadstore_address2\[9\]
*1282 loadstore_dest0\[0\]
*1283 loadstore_dest0\[1\]
*1284 loadstore_dest0\[2\]
*1285 loadstore_dest0\[3\]
*1286 loadstore_dest0\[4\]
*1287 loadstore_dest1\[0\]
*1288 loadstore_dest1\[1\]
*1289 loadstore_dest1\[2\]
*1290 loadstore_dest1\[3\]
*1291 loadstore_dest1\[4\]
*1292 loadstore_dest2\[0\]
*1293 loadstore_dest2\[1\]
*1294 loadstore_dest2\[2\]
*1295 loadstore_dest2\[3\]
*1296 loadstore_dest2\[4\]
*1297 loadstore_size0\[0\]
*1298 loadstore_size0\[1\]
*1299 loadstore_size1\[0\]
*1300 loadstore_size1\[1\]
*1301 loadstore_size2\[0\]
*1302 loadstore_size2\[1\]
*1303 new_PC0\[0\]
*1304 new_PC0\[10\]
*1305 new_PC0\[11\]
*1306 new_PC0\[12\]
*1307 new_PC0\[13\]
*1308 new_PC0\[14\]
*1309 new_PC0\[15\]
*1310 new_PC0\[16\]
*1311 new_PC0\[17\]
*1312 new_PC0\[18\]
*1313 new_PC0\[19\]
*1314 new_PC0\[1\]
*1315 new_PC0\[20\]
*1316 new_PC0\[21\]
*1317 new_PC0\[22\]
*1318 new_PC0\[23\]
*1319 new_PC0\[24\]
*1320 new_PC0\[25\]
*1321 new_PC0\[26\]
*1322 new_PC0\[27\]
*1323 new_PC0\[2\]
*1324 new_PC0\[3\]
*1325 new_PC0\[4\]
*1326 new_PC0\[5\]
*1327 new_PC0\[6\]
*1328 new_PC0\[7\]
*1329 new_PC0\[8\]
*1330 new_PC0\[9\]
*1331 new_PC1\[0\]
*1332 new_PC1\[10\]
*1333 new_PC1\[11\]
*1334 new_PC1\[12\]
*1335 new_PC1\[13\]
*1336 new_PC1\[14\]
*1337 new_PC1\[15\]
*1338 new_PC1\[16\]
*1339 new_PC1\[17\]
*1340 new_PC1\[18\]
*1341 new_PC1\[19\]
*1342 new_PC1\[1\]
*1343 new_PC1\[20\]
*1344 new_PC1\[21\]
*1345 new_PC1\[22\]
*1346 new_PC1\[23\]
*1347 new_PC1\[24\]
*1348 new_PC1\[25\]
*1349 new_PC1\[26\]
*1350 new_PC1\[27\]
*1351 new_PC1\[2\]
*1352 new_PC1\[3\]
*1353 new_PC1\[4\]
*1354 new_PC1\[5\]
*1355 new_PC1\[6\]
*1356 new_PC1\[7\]
*1357 new_PC1\[8\]
*1358 new_PC1\[9\]
*1359 new_PC2\[0\]
*1360 new_PC2\[10\]
*1361 new_PC2\[11\]
*1362 new_PC2\[12\]
*1363 new_PC2\[13\]
*1364 new_PC2\[14\]
*1365 new_PC2\[15\]
*1366 new_PC2\[16\]
*1367 new_PC2\[17\]
*1368 new_PC2\[18\]
*1369 new_PC2\[19\]
*1370 new_PC2\[1\]
*1371 new_PC2\[20\]
*1372 new_PC2\[21\]
*1373 new_PC2\[22\]
*1374 new_PC2\[23\]
*1375 new_PC2\[24\]
*1376 new_PC2\[25\]
*1377 new_PC2\[26\]
*1378 new_PC2\[27\]
*1379 new_PC2\[2\]
*1380 new_PC2\[3\]
*1381 new_PC2\[4\]
*1382 new_PC2\[5\]
*1383 new_PC2\[6\]
*1384 new_PC2\[7\]
*1385 new_PC2\[8\]