*SPEF "ieee 1481-1999"
*DESIGN "wrapped_6502"
*DATE "11:11:11 Fri 11 11, 1111"
*VENDOR "OpenRCX"
*PROGRAM "Parallel Extraction"
*VERSION "1.0"
*DESIGN_FLOW "NAME_SCOPE LOCAL" "PIN_CAP NONE"
*DIVIDER /
*DELIMITER :
*BUS_DELIMITER []
*T_UNIT 1 NS
*C_UNIT 1 PF
*R_UNIT 1 OHM
*L_UNIT 1 HENRY

*NAME_MAP
*1 custom_settings[0]
*2 custom_settings[1]
*3 io_in[0]
*4 io_in[10]
*5 io_in[11]
*6 io_in[12]
*7 io_in[13]
*8 io_in[14]
*9 io_in[15]
*10 io_in[16]
*11 io_in[17]
*12 io_in[18]
*13 io_in[19]
*14 io_in[1]
*15 io_in[20]
*16 io_in[21]
*17 io_in[22]
*18 io_in[23]
*19 io_in[24]
*20 io_in[25]
*21 io_in[26]
*22 io_in[27]
*23 io_in[28]
*24 io_in[29]
*25 io_in[2]
*26 io_in[30]
*27 io_in[31]
*28 io_in[32]
*29 io_in[33]
*30 io_in[34]
*31 io_in[35]
*32 io_in[3]
*33 io_in[4]
*34 io_in[5]
*35 io_in[6]
*36 io_in[7]
*37 io_in[8]
*38 io_in[9]
*39 io_oeb
*40 io_out[0]
*41 io_out[10]
*42 io_out[11]
*43 io_out[12]
*44 io_out[13]
*45 io_out[14]
*46 io_out[15]
*47 io_out[16]
*48 io_out[17]
*49 io_out[18]
*50 io_out[19]
*51 io_out[1]
*52 io_out[20]
*53 io_out[21]
*54 io_out[22]
*55 io_out[23]
*56 io_out[24]
*57 io_out[25]
*58 io_out[26]
*59 io_out[27]
*60 net80
*61 net81
*62 io_out[2]
*63 net82
*64 io_out[31]
*65 io_out[32]
*66 io_out[33]
*67 net83
*68 net84
*69 io_out[3]
*70 io_out[4]
*71 io_out[5]
*72 io_out[6]
*73 io_out[7]
*74 io_out[8]
*75 io_out[9]
*76 rst_n
*79 wb_clk_i
*80 MOS6502\.ABH\[0\]
*81 MOS6502\.ABH\[1\]
*82 MOS6502\.ABH\[2\]
*83 MOS6502\.ABH\[3\]
*84 MOS6502\.ABH\[4\]
*85 MOS6502\.ABH\[5\]
*86 MOS6502\.ABH\[6\]
*87 MOS6502\.ABH\[7\]
*88 MOS6502\.ABL\[0\]
*89 MOS6502\.ABL\[1\]
*90 MOS6502\.ABL\[2\]
*91 MOS6502\.ABL\[3\]
*92 MOS6502\.ABL\[4\]
*93 MOS6502\.ABL\[5\]
*94 MOS6502\.ABL\[6\]
*95 MOS6502\.ABL\[7\]
*96 MOS6502\.ADD\[0\]
*97 MOS6502\.ADD\[1\]
*98 MOS6502\.ADD\[2\]
*99 MOS6502\.ADD\[3\]
*100 MOS6502\.ADD\[4\]
*101 MOS6502\.ADD\[5\]
*102 MOS6502\.ADD\[6\]
*103 MOS6502\.ADD\[7\]
*104 MOS6502\.ALU\.AI7
*105 MOS6502\.ALU\.BI7
*106 MOS6502\.ALU\.CO
*107 MOS6502\.ALU\.HC
*108 MOS6502\.AXYS\[0\]\[0\]
*109 MOS6502\.AXYS\[0\]\[1\]
*110 MOS6502\.AXYS\[0\]\[2\]
*111 MOS6502\.AXYS\[0\]\[3\]
*112 MOS6502\.AXYS\[0\]\[4\]
*113 MOS6502\.AXYS\[0\]\[5\]
*114 MOS6502\.AXYS\[0\]\[6\]
*115 MOS6502\.AXYS\[0\]\[7\]
*116 MOS6502\.AXYS\[1\]\[0\]
*117 MOS6502\.AXYS\[1\]\[1\]
*118 MOS6502\.AXYS\[1\]\[2\]
*119 MOS6502\.AXYS\[1\]\[3\]
*120 MOS6502\.AXYS\[1\]\[4\]
*121 MOS6502\.AXYS\[1\]\[5\]
*122 MOS6502\.AXYS\[1\]\[6\]
*123 MOS6502\.AXYS\[1\]\[7\]
*124 MOS6502\.AXYS\[2\]\[0\]
*125 MOS6502\.AXYS\[2\]\[1\]
*126 MOS6502\.AXYS\[2\]\[2\]
*127 MOS6502\.AXYS\[2\]\[3\]
*128 MOS6502\.AXYS\[2\]\[4\]
*129 MOS6502\.AXYS\[2\]\[5\]
*130 MOS6502\.AXYS\[2\]\[6\]
*131 MOS6502\.AXYS\[2\]\[7\]
*132 MOS6502\.AXYS\[3\]\[0\]
*133 MOS6502\.AXYS\[3\]\[1\]
*134 MOS6502\.AXYS\[3\]\[2\]
*135 MOS6502\.AXYS\[3\]\[3\]
*136 MOS6502\.AXYS\[3\]\[4\]
*137 MOS6502\.AXYS\[3\]\[5\]
*138 MOS6502\.AXYS\[3\]\[6\]
*139 MOS6502\.AXYS\[3\]\[7\]
*140 MOS6502\.DIHOLD\[0\]
*141 MOS6502\.DIHOLD\[1\]
*142 MOS6502\.DIHOLD\[2\]
*143 MOS6502\.DIHOLD\[3\]
*144 MOS6502\.DIHOLD\[4\]
*145 MOS6502\.DIHOLD\[5\]
*146 MOS6502\.DIHOLD\[6\]
*147 MOS6502\.DIHOLD\[7\]
*148 MOS6502\.DI\[0\]
*149 MOS6502\.DI\[1\]
*150 MOS6502\.DI\[2\]
*151 MOS6502\.DI\[3\]
*152 MOS6502\.DI\[4\]
*153 MOS6502\.DI\[5\]
*154 MOS6502\.DI\[6\]
*155 MOS6502\.DI\[7\]
*156 MOS6502\.IRHOLD\[0\]
*157 MOS6502\.IRHOLD\[1\]
*158 MOS6502\.IRHOLD\[2\]
*159 MOS6502\.IRHOLD\[3\]
*160 MOS6502\.IRHOLD\[4\]
*161 MOS6502\.IRHOLD\[5\]
*162 MOS6502\.IRHOLD\[6\]
*163 MOS6502\.IRHOLD\[7\]
*164 MOS6502\.IRHOLD_valid
*165 MOS6502\.NMI_1
*166 MOS6502\.NMI_edge
*167 MOS6502\.PC\[0\]
*168 MOS6502\.PC\[10\]
*169 MOS6502\.PC\[11\]
*170 MOS6502\.PC\[12\]
*171 MOS6502\.PC\[13\]
*172 MOS6502\.PC\[14\]
*173 MOS6502\.PC\[15\]
*174 MOS6502\.PC\[1\]
*175 MOS6502\.PC\[2\]
*176 MOS6502\.PC\[3\]
*177 MOS6502\.PC\[4\]
*178 MOS6502\.PC\[5\]
*179 MOS6502\.PC\[6\]
*180 MOS6502\.PC\[7\]
*181 MOS6502\.PC\[8\]
*182 MOS6502\.PC\[9\]
*183 MOS6502\.adc_bcd
*184 MOS6502\.adc_sbc
*185 MOS6502\.adj_bcd
*186 MOS6502\.backwards
*187 MOS6502\.bit_ins
*188 MOS6502\.clc
*189 MOS6502\.cld
*190 MOS6502\.cli
*191 MOS6502\.clv
*192 MOS6502\.compare
*193 MOS6502\.cond_code\[0\]
*194 MOS6502\.cond_code\[1\]
*195 MOS6502\.cond_code\[2\]
*196 MOS6502\.dst_reg\[0\]
*197 MOS6502\.dst_reg\[1\]
*198 MOS6502\.inc
*199 MOS6502\.index_y
*200 MOS6502\.load_only
*201 MOS6502\.load_reg
*202 MOS6502\.op\[0\]
*203 MOS6502\.op\[1\]
*204 MOS6502\.op\[2\]
*205 MOS6502\.op\[3\]
*206 MOS6502\.php
*207 MOS6502\.plp
*208 MOS6502\.res
*209 MOS6502\.rotate
*210 MOS6502\.sec
*211 MOS6502\.sed
*212 MOS6502\.sei
*213 MOS6502\.shift
*214 MOS6502\.shift_right
*215 MOS6502\.src_reg\[0\]
*216 MOS6502\.src_reg\[1\]
*217 MOS6502\.state\[0\]
*218 MOS6502\.state\[1\]
*219 MOS6502\.state\[2\]
*220 MOS6502\.state\[3\]
*221 MOS6502\.state\[4\]
*222 MOS6502\.state\[5\]
*223 MOS6502\.store
*224 MOS6502\.write_back
*225 _0000_
*226 _0001_
*227 _0002_
*228 _0003_
*229 _0004_
*230 _0005_
*231 _0006_
*232 _0007_
*233 _0008_
*234 _0009_
*235 _0010_
*236 _0011_
*237 _0012_
*238 _0013_
*239 _0014_
*240 _0015_
*241 _0016_
*242 _0017_
*243 _0018_
*244 _0019_
*245 _0020_
*246 _0021_
*247 _0022_
*248 _0023_
*249 _0024_
*250 _0025_
*251 _0026_
*252 _0027_
*253 _0028_
*254 _0029_
*255 _0030_
*256 _0031_
*257 _0032_
*258 _0033_
*259 _0034_
*260 _0035_
*261 _0036_
*262 _0037_
*263 _0038_
*264 _0039_
*265 _0040_
*266 _0041_
*267 _0042_
*268 _0043_
*269 _0044_
*270 _0045_
*271 _0046_
*272 _0047_
*273 _0048_
*274 _0049_
*275 _0050_
*276 _0051_
*277 _0052_
*278 _0053_
*279 _0054_
*280 _0055_
*281 _0056_
*282 _0057_
*283 _0058_
*284 _0059_
*285 _0060_
*286 _0061_
*287 _0062_
*288 _0063_
*289 _0064_
*290 _0065_
*291 _0066_
*292 _0067_
*293 _0068_
*294 _0069_
*295 _0070_
*296 _0071_
*297 _0072_
*298 _0073_
*299 _0074_
*300 _0075_
*301 _0076_
*302 _0077_
*303 _0078_
*304 _0079_
*305 _0080_
*306 _0081_
*307 _0082_
*308 _0083_
*309 _0084_
*310 _0085_
*311 _0086_
*312 _0087_
*313 _0088_
*314 _0089_
*315 _0090_
*316 _0091_
*317 _0092_
*318 _0093_
*319 _0094_
*320 _0095_
*321 _0096_
*322 _0097_
*323 _0098_
*324 _0099_
*325 _0100_
*326 _0101_
*327 _0102_
*328 _0103_
*329 _0104_
*330 _0105_
*331 _0106_
*332 _0107_
*333 _0108_
*334 _0109_
*335 _0110_
*336 _0111_
*337 _0112_
*338 _0113_
*339 _0114_
*340 _0115_
*341 _0116_
*342 _0117_
*343 _0118_
*344 _0119_
*345 _0120_
*346 _0121_
*347 _0122_
*348 _0123_
*349 _0124_
*350 _0125_
*351 _0126_
*352 _0127_
*353 _0128_
*354 _0129_
*355 _0130_
*356 _0131_
*357 _0132_
*358 _0133_
*359 _0134_
*360 _0135_
*361 _0136_
*362 _0137_
*363 _0138_
*364 _0139_
*365 _0140_
*366 _0141_
*367 _0142_
*368 _0143_
*369 _0144_
*370 _0145_
*371 _0146_
*372 _0147_
*373 _0148_
*374 _0149_
*375 _0150_
*376 _0151_
*377 _0152_
*378 _0153_
*379 _0154_
*380 _0155_
*381 _0156_
*382 _0157_
*383 _0158_
*384 _0159_
*385 _0160_
*386 _0161_
*387 _0162_
*388 _0163_
*389 _0164_
*390 _0165_
*391 _0166_
*392 _0167_
*393 _0168_
*394 _0169_
*395 _0170_
*396 _0171_
*397 _0172_
*398 _0173_
*399 _0174_
*400 _0175_
*401 _0176_
*402 _0177_
*403 _0178_
*404 _0179_
*405 _0180_
*406 _0181_
*407 _0182_
*408 _0183_
*409 _0184_
*410 _0185_
*411 _0186_
*412 _0187_
*413 _0188_
*414 _0189_
*415 _0190_
*416 _0191_
*417 _0192_
*418 _0193_
*419 _0194_
*420 _0195_
*421 _0196_
*422 _0197_
*423 _0198_
*424 _0199_
*425 _0200_
*426 _0201_
*427 _0202_
*428 _0203_
*429 _0204_
*430 _0205_
*431 _0206_
*432 _0207_
*433 _0208_
*434 _0209_
*435 _0210_
*436 _0211_
*437 _0212_
*438 _0213_
*439 _0214_
*440 _0215_
*441 _0216_
*442 _0217_
*443 _0218_
*444 _0219_
*445 _0220_
*446 _0221_
*447 _0222_
*448 _0223_
*449 _0224_
*450 _0225_
*451 _0226_
*452 _0227_
*453 _0228_
*454 _0229_
*455 _0230_
*456 _0231_
*457 _0232_
*458 _0233_
*459 _0234_
*460 _0235_
*461 _0236_
*462 _0237_
*463 _0238_
*464 _0239_
*465 _0240_
*466 _0241_
*467 _0242_
*468 _0243_
*469 _0244_
*470 _0245_
*471 _0246_
*472 _0247_
*473 _0248_
*474 _0249_
*475 _0250_
*476 _0251_
*477 _0252_
*478 _0253_
*479 _0254_
*480 _0255_
*481 _0256_
*482 _0257_
*483 _0258_
*484 _0259_
*485 _0260_
*486 _0261_
*487 _0262_
*488 _0263_
*489 _0264_
*490 _0265_
*491 _0266_
*492 _0267_
*493 _0268_
*494 _0269_
*495 _0270_
*496 _0271_
*497 _0272_
*498 _0273_
*499 _0274_
*500 _0275_
*501 _0276_
*502 _0277_
*503 _0278_
*504 _0279_
*505 _0280_
*506 _0281_
*507 _0282_
*508 _0283_
*509 _0284_
*510 _0285_
*511 _0286_
*512 _0287_
*513 _0288_
*514 _0289_
*515 _0290_
*516 _0291_
*517 _0292_
*518 _0293_
*519 _0294_
*520 _0295_
*521 _0296_
*522 _0297_
*523 _0298_
*524 _0299_
*525 _0300_
*526 _0301_
*527 _0302_
*528 _0303_
*529 _0304_
*530 _0305_
*531 _0306_
*532 _0307_
*533 _0308_
*534 _0309_
*535 _0310_
*536 _0311_
*537 _0312_
*538 _0313_
*539 _0314_
*540 _0315_
*541 _0316_
*542 _0317_
*543 _0318_
*544 _0319_
*545 _0320_
*546 _0321_
*547 _0322_
*548 _0323_
*549 _0324_
*550 _0325_
*551 _0326_
*552 _0327_
*553 _0328_
*554 _0329_
*555 _0330_
*556 _0331_
*557 _0332_
*558 _0333_
*559 _0334_
*560 _0335_
*561 _0336_
*562 _0337_
*563 _0338_
*564 _0339_
*565 _0340_
*566 _0341_
*567 _0342_
*568 _0343_
*569 _0344_
*570 _0345_
*571 _0346_
*572 _0347_
*573 _0348_
*574 _0349_
*575 _0350_
*576 _0351_
*577 _0352_
*578 _0353_
*579 _0354_
*580 _0355_
*581 _0356_
*582 _0357_
*583 _0358_
*584 _0359_
*585 _0360_
*586 _0361_
*587 _0362_
*588 _0363_
*589 _0364_
*590 _0365_
*591 _0366_
*592 _0367_
*593 _0368_
*594 _0369_
*595 _0370_
*596 _0371_
*597 _0372_
*598 _0373_
*599 _0374_
*600 _0375_
*601 _0376_
*602 _0377_
*603 _0378_
*604 _0379_
*605 _0380_
*606 _0381_
*607 _0382_
*608 _0383_
*609 _0384_
*610 _0385_
*611 _0386_
*612 _0387_
*613 _0388_
*614 _0389_
*615 _0390_
*616 _0391_
*617 _0392_
*618 _0393_
*619 _0394_
*620 _0395_
*621 _0396_
*622 _0397_
*623 _0398_
*624 _0399_
*625 _0400_
*626 _0401_
*627 _0402_
*628 _0403_
*629 _0404_
*630 _0405_
*631 _0406_
*632 _0407_
*633 _0408_
*634 _0409_
*635 _0410_
*636 _0411_
*637 _0412_
*638 _0413_
*639 _0414_
*640 _0415_
*641 _0416_
*642 _0417_
*643 _0418_
*644 _0419_
*645 _0420_
*646 _0421_
*647 _0422_
*648 _0423_
*649 _0424_
*650 _0425_
*651 _0426_
*652 _0427_
*653 _0428_
*654 _0429_
*655 _0430_
*656 _0431_
*657 _0432_
*658 _0433_
*659 _0434_
*660 _0435_
*661 _0436_
*662 _0437_
*663 _0438_
*664 _0439_
*665 _0440_
*666 _0441_
*667 _0442_
*668 _0443_
*669 _0444_
*670 _0445_
*671 _0446_
*672 _0447_
*673 _0448_
*674 _0449_
*675 _0450_
*676 _0451_
*677 _0452_
*678 _0453_
*679 _0454_
*680 _0455_
*681 _0456_
*682 _0457_
*683 _0458_
*684 _0459_
*685 _0460_
*686 _0461_
*687 _0462_
*688 _0463_
*689 _0464_
*690 _0465_
*691 _0466_
*692 _0467_
*693 _0468_
*694 _0469_
*695 _0470_
*696 _0471_
*697 _0472_
*698 _0473_
*699 _0474_
*700 _0475_
*701 _0476_
*702 _0477_
*703 _0478_
*704 _0479_
*705 _0480_
*706 _0481_
*707 _0482_
*708 _0483_
*709 _0484_
*710 _0485_
*711 _0486_
*712 _0487_
*713 _0488_
*714 _0489_
*715 _0490_
*716 _0491_
*717 _0492_
*718 _0493_
*719 _0494_
*720 _0495_
*721 _0496_
*722 _0497_
*723 _0498_
*724 _0499_
*725 _0500_
*726 _0501_
*727 _0502_
*728 _0503_
*729 _0504_
*730 _0505_
*731 _0506_
*732 _0507_
*733 _0508_
*734 _0509_
*735 _0510_
*736 _0511_
*737 _0512_
*738 _0513_
*739 _0514_
*740 _0515_
*741 _0516_
*742 _0517_
*743 _0518_
*744 _0519_
*745 _0520_
*746 _0521_
*747 _0522_
*748 _0523_
*749 _0524_
*750 _0525_
*751 _0526_
*752 _0527_
*753 _0528_
*754 _0529_
*755 _0530_
*756 _0531_
*757 _0532_
*758 _0533_
*759 _0534_
*760 _0535_
*761 _0536_
*762 _0537_
*763 _0538_
*764 _0539_
*765 _0540_
*766 _0541_
*767 _0542_
*768 _0543_
*769 _0544_
*770 _0545_
*771 _0546_
*772 _0547_
*773 _0548_
*774 _0549_
*775 _0550_
*776 _0551_
*777 _0552_
*778 _0553_
*779 _0554_
*780 _0555_
*781 _0556_
*782 _0557_
*783 _0558_
*784 _0559_
*785 _0560_
*786 _0561_
*787 _0562_
*788 _0563_
*789 _0564_
*790 _0565_
*791 _0566_
*792 _0567_
*793 _0568_
*794 _0569_
*795 _0570_
*796 _0571_
*797 _0572_
*798 _0573_
*799 _0574_
*800 _0575_
*801 _0576_
*802 _0577_
*803 _0578_
*804 _0579_
*805 _0580_
*806 _0581_
*807 _0582_
*808 _0583_
*809 _0584_
*810 _0585_
*811 _0586_
*812 _0587_
*813 _0588_
*814 _0589_
*815 _0590_
*816 _0591_
*817 _0592_
*818 _0593_
*819 _0594_
*820 _0595_
*821 _0596_
*822 _0597_
*823 _0598_
*824 _0599_
*825 _0600_
*826 _0601_
*827 _0602_
*828 _0603_
*829 _0604_
*830 _0605_
*831 _0606_
*832 _0607_
*833 _0608_
*834 _0609_
*835 _0610_
*836 _0611_
*837 _0612_
*838 _0613_
*839 _0614_
*840 _0615_
*841 _0616_
*842 _0617_
*843 _0618_
*844 _0619_
*845 _0620_
*846 _0621_
*847 _0622_
*848 _0623_
*849 _0624_
*850 _0625_
*851 _0626_
*852 _0627_
*853 _0628_
*854 _0629_
*855 _0630_
*856 _0631_
*857 _0632_
*858 _0633_
*859 _0634_
*860 _0635_
*861 _0636_
*862 _0637_
*863 _0638_
*864 _0639_
*865 _0640_
*866 _0641_
*867 _0642_
*868 _0643_
*869 _0644_
*870 _0645_
*871 _0646_
*872 _0647_
*873 _0648_
*874 _0649_
*875 _0650_
*876 _0651_
*877 _0652_
*878 _0653_
*879 _0654_
*880 _0655_
*881 _0656_
*882 _0657_
*883 _0658_
*884 _0659_
*885 _0660_
*886 _0661_
*887 _0662_
*888 _0663_
*889 _0664_
*890 _0665_
*891 _0666_
*892 _0667_
*893 _0668_
*894 _0669_
*895 _0670_
*896 _0671_
*897 _0672_
*898 _0673_
*899 _0674_
*900 _0675_
*901 _0676_
*902 _0677_
*903 _0678_
*904 _0679_
*905 _0680_
*906 _0681_
*907 _0682_
*908 _0683_
*909 _0684_
*910 _0685_
*911 _0686_
*912 _0687_
*913 _0688_
*914 _0689_
*915 _0690_
*916 _0691_
*917 _0692_
*918 _0693_
*919 _0694_
*920 _0695_
*921 _0696_
*922 _0697_
*923 _0698_
*924 _0699_
*925 _0700_
*926 _0701_
*927 _0702_
*928 _0703_
*929 _0704_
*930 _0705_
*931 _0706_
*932 _0707_
*933 _0708_
*934 _0709_
*935 _0710_
*936 _0711_
*937 _0712_
*938 _0713_
*939 _0714_
*940 _0715_
*941 _0716_
*942 _0717_
*943 _0718_
*944 _0719_
*945 _0720_
*946 _0721_
*947 _0722_
*948 _0723_
*949 _0724_
*950 _0725_
*951 _0726_
*952 _0727_
*953 _0728_
*954 _0729_
*955 _0730_
*956 _0731_
*957 _0732_
*958 _0733_
*959 _0734_
*960 _0735_
*961 _0736_
*962 _0737_
*963 _0738_
*964 _0739_
*965 _0740_
*966 _0741_
*967 _0742_
*968 _0743_
*969 _0744_
*970 _0745_
*971 _0746_
*972 _0747_
*973 _0748_
*974 _0749_
*975 _0750_
*976 _0751_
*977 _0752_
*978 _0753_
*979 _0754_
*980 _0755_
*981 _0756_
*982 _0757_
*983 _0758_
*984 _0759_
*985 _0760_
*986 _0761_
*987 _0762_
*988 _0763_
*989 _0764_
*990 _0765_
*991 _0766_
*992 _0767_
*993 _0768_
*994 _0769_
*995 _0770_
*996 _0771_
*997 _0772_
*998 _0773_
*999 _0774_
*1000 _0775_
*1001 _0776_
*1002 _0777_
*1003 _0778_
*1004 _0779_
*1005 _0780_
*1006 _0781_
*1007 _0782_
*1008 _0783_
*1009 _0784_
*1010 _0785_
*1011 _0786_
*1012 _0787_
*1013 _0788_
*1014 _0789_
*1015 _0790_
*1016 _0791_
*1017 _0792_
*1018 _0793_
*1019 _0794_
*1020 _0795_
*1021 _0796_
*1022 _0797_
*1023 _0798_
*1024 _0799_
*1025 _0800_
*1026 _0801_
*1027 _0802_
*1028 _0803_
*1029 _0804_
*1030 _0805_
*1031 _0806_
*1032 _0807_
*1033 _0808_
*1034 _0809_
*1035 _0810_
*1036 _0811_
*1037 _0812_
*1038 _0813_
*1039 _0814_
*1040 _0815_
*1041 _0816_
*1042 _0817_
*1043 _0818_
*1044 _0819_
*1045 _0820_
*1046 _0821_
*1047 _0822_
*1048 _0823_
*1049 _0824_
*1050 _0825_
*1051 _0826_
*1052 _0827_
*1053 _0828_
*1054 _0829_
*1055 _0830_
*1056 _0831_
*1057 _0832_
*1058 _0833_
*1059 _0834_
*1060 _0835_
*1061 _0836_
*1062 _0837_
*1063 _0838_
*1064 _0839_
*1065 _0840_
*1066 _0841_
*1067 _0842_
*1068 _0843_
*1069 _0844_
*1070 _0845_
*1071 _0846_
*1072 _0847_
*1073 _0848_
*1074 _0849_
*1075 _0850_
*1076 _0851_
*1077 _0852_
*1078 _0853_
*1079 _0854_
*1080 _0855_
*1081 _0856_
*1082 _0857_
*1083 _0858_
*1084 _0859_
*1085 _0860_
*1086 _0861_
*1087 _0862_
*1088 _0863_
*1089 _0864_
*1090 _0865_
*1091 _0866_
*1092 _0867_
*1093 _0868_
*1094 _0869_
*1095 _0870_
*1096 _0871_
*1097 _0872_
*1098 _0873_
*1099 _0874_
*1100 _0875_
*1101 _0876_
*1102 _0877_
*1103 _0878_
*1104 _0879_
*1105 _0880_
*1106 _0881_
*1107 _0882_
*1108 _0883_
*1109 _0884_
*1110 _0885_
*1111 _0886_
*1112 _0887_
*1113 _0888_
*1114 _0889_
*1115 _0890_
*1116 _0891_
*1117 _0892_
*1118 _0893_
*1119 _0894_
*1120 _0895_
*1121 _0896_
*1122 _0897_
*1123 _0898_
*1124 _0899_
*1125 _0900_
*1126 _0901_
*1127 _0902_
*1128 _0903_
*1129 _0904_
*1130 _0905_
*1131 _0906_
*1132 _0907_
*1133 _0908_
*1134 _0909_
*1135 _0910_
*1136 _0911_
*1137 _0912_
*1138 _0913_
*1139 _0914_
*1140 _0915_
*1141 _0916_
*1142 _0917_
*1143 _0918_
*1144 _0919_
*1145 _0920_
*1146 _0921_
*1147 _0922_
*1148 _0923_
*1149 _0924_
*1150 _0925_
*1151 _0926_
*1152 _0927_
*1153 _0928_
*1154 _0929_
*1155 _0930_
*1156 _0931_
*1157 _0932_
*1158 _0933_
*1159 _0934_
*1160 _0935_
*1161 _0936_
*1162 _0937_
*1163 _0938_
*1164 _0939_
*1165 _0940_
*1166 _0941_
*1167 _0942_
*1168 _0943_
*1169 _0944_
*1170 _0945_
*1171 _0946_
*1172 _0947_
*1173 _0948_
*1174 _0949_
*1175 _0950_
*1176 _0951_
*1177 _0952_
*1178 _0953_
*1179 _0954_
*1180 _0955_
*1181 _0956_
*1182 _0957_
*1183 _0958_
*1184 _0959_
*1185 _0960_
*1186 _0961_
*1187 _0962_
*1188 _0963_
*1189 _0964_
*1190 _0965_
*1191 _0966_
*1192 _0967_
*1193 _0968_
*1194 _0969_
*1195 _0970_
*1196 _0971_
*1197 _0972_
*1198 _0973_
*1199 _0974_
*1200 _0975_
*1201 _0976_
*1202 _0977_
*1203 _0978_
*1204 _0979_
*1205 _0980_
*1206 _0981_
*1207 _0982_
*1208 _0983_
*1209 _0984_
*1210 _0985_
*1211 _0986_
*1212 _0987_
*1213 _0988_
*1214 _0989_
*1215 _0990_
*1216 _0991_
*1217 _0992_
*1218 _0993_
*1219 _0994_
*1220 _0995_
*1221 _0996_
*1222 _0997_
*1223 _0998_
*1224 _0999_
*1225 _1000_
*1226 _1001_
*1227 _1002_
*1228 _1003_
*1229 _1004_
*1230 _1005_
*1231 _1006_
*1232 _1007_
*1233 _1008_
*1234 _1009_
*1235 _1010_
*1236 _1011_
*1237 _1012_
*1238 _1013_
*1239 _1014_
*1240 _1015_
*1241 _1016_
*1242 _1017_
*1243 _1018_
*1244 _1019_
*1245 _1020_
*1246 _1021_
*1247 _1022_
*1248 _1023_
*1249 _1024_
*1250 clknet_0_wb_clk_i
*1251 clknet_4_0_0_wb_clk_i
*1252 clknet_4_10_0_wb_clk_i
*1253 clknet_4_11_0_wb_clk_i
*1254 clknet_4_12_0_wb_clk_i
*1255 clknet_4_13_0_wb_clk_i
*1256 clknet_4_14_0_wb_clk_i
*1257 clknet_4_15_0_wb_clk_i
*1258 clknet_4_1_0_wb_clk_i
*1259 clknet_4_2_0_wb_clk_i
*1260 clknet_4_3_0_wb_clk_i
*1261 clknet_4_4_0_wb_clk_i
*1262 clknet_4_5_0_wb_clk_i
*1263 clknet_4_6_0_wb_clk_i
*1264 clknet_4_7_0_wb_clk_i
*1265 clknet_4_8_0_wb_clk_i
*1266 clknet_4_9_0_wb_clk_i
*1267 net1
*1268 net10
*1269 net100
*1270 net101
*1271 net102
*1272 net103
*1273 net104
*1274 net105
*1275 net106
*1276 net107
*1277 net108
*1278 net109
*1279 net11
*1280 net110
*1281 net111
*1282 net112
*1283 net113
*1284 net114
*1285 net115
*1286 net116
*1287 net117
*1288 net118
*1289 net119
*1290 net12
*1291 net120
*1292 net121
*1293 net122
*1294 net123
*1295 net124
*1296 net125
*1297 net126
*1298 net127
*1299 net128
*1300 net129
*1301 net13
*1302 net130
*1303 net131
*1304 net132
*1305 net133
*1306 net134
*1307 net135
*1308 net136
*1309 net137
*1310 net138
*1311 net139
*1312 net14
*1313 net140
*1314 net141
*1315 net142
*1316 net143
*1317 net144
*1318 net145
*1319 net146
*1320 net147
*1321 net148
*1322 net149
*1323 net15
*1324 net150
*1325 net151
*1326 net152
*1327 net153
*1328 net154
*1329 net155
*1330 net156
*1331 net157
*1332 net158
*1333 net159
*1334 net16
*1335 net160
*1336 net161
*1337 net162
*1338 net163
*1339 net164
*1340 net165
*1341 net166
*1342 net167
*1343 net168
*1344 net169
*1345 net17
*1346 net170
*1347 net171
*1348 net172
*1349 net173
*1350 net174
*1351 net175
*1352 net176
*1353 net177
*1354 net178
*1355 net179
*1356 net18
*1357 net180
*1358 net181
*1359 net182
*1360 net183
*1361 net184
*1362 net185
*1363 net186
*1364 net187
*1365 net188
*1366 net189
*1367 net19
*1368 net190
*1369 net191
*1370 net192
*1371 net193
*1372 net194
*1373 net195
*1374 net196
*1375 net197
*1376 net198
*1377 net199
*1378 net2
*1379 net20
*1380 net200
*1381 net201
*1382 net202
*1383 net203
*1384 net204
*1385 net205
*1386 net206
*1387 net207
*1388 net208
*1389 net209
*1390 net21
*1391 net210
*1392 net211
*1393 net212
*1394 net213
*1395 net214
*1396 net215
*1397 net216
*1398 net217
*1399 net218
*1400 net219
*1401 net22
*1402 net220
*1403 net221
*1404 net222
*1405 net223
*1406 net224
*1407 net225
*1408 net226
*1409 net227
*1410 net228
*1411 net229
*1412 net23
*1413 net230
*1414 net231
*1415 net232
*1416 net233
*1417 net234
*1418 net235
*1419 net236
*1420 net237
*1421 net238
*1422 net239
*1423 net24
*1424 net240
*1425 net241
*1426 net242
*1427 net243
*1428 net244
*1429 net245
*1430 net246
*1431 net247
*1432 net248
*1433 net249
*1434 net25
*1435 net250
*1436 net251
*1437 net252
*1438 net253
*1439 net254
*1440 net255
*1441 net256
*1442 net257
*1443 net258
*1444 net259
*1445 net26
*1446 net260
*1447 net261
*1448 net262
*1449 net263
*1450 net264
*1451 net265
*1452 net266
*1453 net267
*1454 net268
*1455 net269
*1456 net27
*1457 net270
*1458 net271
*1459 net272
*1460 net273
*1461 net274
*1462 net275
*1463 net276
*1464 net277
*1465 net278
*1466 net279
*1467 net28
*1468 net280
*1469 net281
*1470 net282
*1471 net283
*1472 net284
*1473 net285
*1474 net286
*1475 net287
*1476 net288
*1477 net289
*1478 net29
*1479 net290
*1480 net291
*1481 net292
*1482 net293
*1483 net294
*1484 net295
*1485 net296
*1486 net297
*1487 net298
*1488 net299
*1489 net3
*1490 net30
*1491 net300
*1492 net301
*1493 net302
*1494 net303
*1495 net304
*1496 net305
*1497 net306
*1498 net307
*1499 net308
*1500 net309
*1501 net31
*1502 net310
*1503 net311
*1504 net312
*1505 net313
*1506 net314
*1507 net315
*1508 net316
*1509 net317
*1510 net318
*1511 net319
*1512 net32
*1513 net320
*1514 net321
*1515 net322
*1516 net323
*1517 net324
*1518 net325
*1519 net326
*1520 net327
*1521 net328
*1522 net329
*1523 net33
*1524 net34
*1525 net35
*1526 net36
*1527 net37
*1528 net38
*1529 net39
*1530 net4
*1531 net40
*1532 net41
*1533 net42
*1534 net43
*1535 net44
*1536 net45
*1537 net46
*1538 net47
*1539 net48
*1540 net49
*1541 net5
*1542 net50
*1543 net51
*1544 net52
*1545 net53
*1546 net54
*1547 net55
*1548 net56
*1549 net57
*1550 net58
*1551 net59
*1552 net6
*1553 net60
*1554 net61
*1555 net62
*1556 net63
*1557 net64
*1558 net65
*1559 net66
*1560 net67
*1561 net68
*1562 net69
*1563 net7
*1564 net70
*1565 net71
*1566 net72
*1567 net73
*1568 net74
*1569 net75
*1570 net76
*1571 net77
*1572 net78
*1573 net79
*1574 net8
*1575 net85
*1576 net86
*1577 net87
*1578 net88
*1579 net89
*1580 net9
*1581 net90
*1582 net91
*1583 net92
*1584 net93
*1585 net94
*1586 net95
*1587 net96
*1588 net97
*1589 net98
*1590 net99
*1591 ANTENNA_1
*1592 ANTENNA__1026__A
*1593 ANTENNA__1039__A
*1594 ANTENNA__1053__A
*1595 ANTENNA__1054__B
*1596 ANTENNA__1075__D
*1597 ANTENNA__1087__A2
*1598 ANTENNA__1088__A2
*1599 ANTENNA__1090__B
*1600 ANTENNA__1129__A
*1601 ANTENNA__1132__A
*1602 ANTENNA__1135__A
*1603 ANTENNA__1146__S
*1604 ANTENNA__1147__B2
*1605 ANTENNA__1148__B2
*1606 ANTENNA__1156__S
*1607 ANTENNA__1157__B2
*1608 ANTENNA__1163__S
*1609 ANTENNA__1164__B2
*1610 ANTENNA__1170__S
*1611 ANTENNA__1171__B2
*1612 ANTENNA__1178__S
*1613 ANTENNA__1179__B2
*1614 ANTENNA__1187__S
*1615 ANTENNA__1188__B2
*1616 ANTENNA__1189__A1
*1617 ANTENNA__1194__S
*1618 ANTENNA__1195__B2
*1619 ANTENNA__1203__S
*1620 ANTENNA__1204__B2
*1621 ANTENNA__1208__A2
*1622 ANTENNA__1209__A1
*1623 ANTENNA__1210__A2
*1624 ANTENNA__1212__A2
*1625 ANTENNA__1214__A2
*1626 ANTENNA__1216__A2
*1627 ANTENNA__1217__A1
*1628 ANTENNA__1218__A2
*1629 ANTENNA__1220__A2
*1630 ANTENNA__1223__A2
*1631 ANTENNA__1225__A
*1632 ANTENNA__1231__B1
*1633 ANTENNA__1234__C1
*1634 ANTENNA__1235__A
*1635 ANTENNA__1235__B
*1636 ANTENNA__1239__B
*1637 ANTENNA__1243__A
*1638 ANTENNA__1246__B2
*1639 ANTENNA__1247__A1
*1640 ANTENNA__1247__B1
*1641 ANTENNA__1248__A0
*1642 ANTENNA__1249__A
*1643 ANTENNA__1251__A0
*1644 ANTENNA__1252__A
*1645 ANTENNA__1253__A
*1646 ANTENNA__1256__A0
*1647 ANTENNA__1257__A
*1648 ANTENNA__1258__A
*1649 ANTENNA__1259__A0
*1650 ANTENNA__1260__A
*1651 ANTENNA__1263__A0
*1652 ANTENNA__1264__A0
*1653 ANTENNA__1265__A
*1654 ANTENNA__1266__A
*1655 ANTENNA__1268__A0
*1656 ANTENNA__1269__A
*1657 ANTENNA__1270__A
*1658 ANTENNA__1271__A0
*1659 ANTENNA__1272__A
*1660 ANTENNA__1283__A
*1661 ANTENNA__1284__A
*1662 ANTENNA__1296__A
*1663 ANTENNA__1326__A1
*1664 ANTENNA__1330__A1
*1665 ANTENNA__1331__B
*1666 ANTENNA__1332__A1
*1667 ANTENNA__1332__B2
*1668 ANTENNA__1339__B1
*1669 ANTENNA__1352__A1
*1670 ANTENNA__1362__A0
*1671 ANTENNA__1362__A1
*1672 ANTENNA__1362__A2
*1673 ANTENNA__1362__A3
*1674 ANTENNA__1365__B
*1675 ANTENNA__1367__A1
*1676 ANTENNA__1379__B
*1677 ANTENNA__1380__B1
*1678 ANTENNA__1381__A1
*1679 ANTENNA__1382__A1
*1680 ANTENNA__1424__B2
*1681 ANTENNA__1427__B2
*1682 ANTENNA__1430__B2
*1683 ANTENNA__1431__B2
*1684 ANTENNA__1434__B2
*1685 ANTENNA__1436__A1
*1686 ANTENNA__1442__B2
*1687 ANTENNA__1444__B2
*1688 ANTENNA__1445__B2
*1689 ANTENNA__1447__B
*1690 ANTENNA__1448__B
*1691 ANTENNA__1451__A2
*1692 ANTENNA__1452__A2
*1693 ANTENNA__1457__D
*1694 ANTENNA__1458__C
*1695 ANTENNA__1461__A2
*1696 ANTENNA__1461__B2
*1697 ANTENNA__1462__A
*1698 ANTENNA__1466__A2
*1699 ANTENNA__1467__C
*1700 ANTENNA__1469__B
*1701 ANTENNA__1470__A2
*1702 ANTENNA__1470__B1
*1703 ANTENNA__1471__A1
*1704 ANTENNA__1481__B1
*1705 ANTENNA__1483__A2
*1706 ANTENNA__1484__B1
*1707 ANTENNA__1485__A1
*1708 ANTENNA__1495__S
*1709 ANTENNA__1496__C
*1710 ANTENNA__1497__A1
*1711 ANTENNA__1497__B1
*1712 ANTENNA__1498__A
*1713 ANTENNA__1500__A
*1714 ANTENNA__1502__A
*1715 ANTENNA__1502__B
*1716 ANTENNA__1503__A2
*1717 ANTENNA__1510__B1
*1718 ANTENNA__1511__A1
*1719 ANTENNA__1511__A2
*1720 ANTENNA__1513__A
*1721 ANTENNA__1514__A
*1722 ANTENNA__1517__A
*1723 ANTENNA__1517__B
*1724 ANTENNA__1518__A1
*1725 ANTENNA__1521__A1
*1726 ANTENNA__1524__B1
*1727 ANTENNA__1525__A1
*1728 ANTENNA__1525__A2
*1729 ANTENNA__1527__A
*1730 ANTENNA__1527__B
*1731 ANTENNA__1528__A2
*1732 ANTENNA__1530__B
*1733 ANTENNA__1531__A1
*1734 ANTENNA__1534__A
*1735 ANTENNA__1535__A1
*1736 ANTENNA__1535__A2
*1737 ANTENNA__1541__A0
*1738 ANTENNA__1541__S
*1739 ANTENNA__1545__A
*1740 ANTENNA__1545__B
*1741 ANTENNA__1546__A1
*1742 ANTENNA__1548__A
*1743 ANTENNA__1549__A1
*1744 ANTENNA__1549__A2
*1745 ANTENNA__1559__B1
*1746 ANTENNA__1568__S
*1747 ANTENNA__1572__A2
*1748 ANTENNA__1572__B1
*1749 ANTENNA__1574__A2
*1750 ANTENNA__1574__B2
*1751 ANTENNA__1583__A2
*1752 ANTENNA__1583__B1
*1753 ANTENNA__1585__A2
*1754 ANTENNA__1585__B2
*1755 ANTENNA__1594__A2
*1756 ANTENNA__1594__B1
*1757 ANTENNA__1596__A2
*1758 ANTENNA__1596__B2
*1759 ANTENNA__1609__A2
*1760 ANTENNA__1609__B1
*1761 ANTENNA__1610__A1
*1762 ANTENNA__1612__A2
*1763 ANTENNA__1612__B2
*1764 ANTENNA__1620__A2
*1765 ANTENNA__1620__B1
*1766 ANTENNA__1629__A2
*1767 ANTENNA__1629__B1
*1768 ANTENNA__1631__A2
*1769 ANTENNA__1631__B2
*1770 ANTENNA__1641__A2
*1771 ANTENNA__1641__B1
*1772 ANTENNA__1644__A2
*1773 ANTENNA__1644__B2
*1774 ANTENNA__1664__A2
*1775 ANTENNA__1664__B2
*1776 ANTENNA__1678__C1
*1777 ANTENNA__1695__C1
*1778 ANTENNA__1699__A0
*1779 ANTENNA__1699__S
*1780 ANTENNA__1700__S
*1781 ANTENNA__1702__S
*1782 ANTENNA__1703__S
*1783 ANTENNA__1704__S
*1784 ANTENNA__1705__A
*1785 ANTENNA__1706__A1
*1786 ANTENNA__1706__A2
*1787 ANTENNA__1708__A
*1788 ANTENNA__1709__B2
*1789 ANTENNA__1710__S
*1790 ANTENNA__1711__S
*1791 ANTENNA__1712__A0
*1792 ANTENNA__1712__S
*1793 ANTENNA__1713__S
*1794 ANTENNA__1717__A
*1795 ANTENNA__1717__B
*1796 ANTENNA__1718__A
*1797 ANTENNA__1718__B
*1798 ANTENNA__1720__B
*1799 ANTENNA__1722__B1
*1800 ANTENNA__1728__B
*1801 ANTENNA__1729__B1
*1802 ANTENNA__1731__A2
*1803 ANTENNA__1738__A1
*1804 ANTENNA__1740__A
*1805 ANTENNA__1743__A1
*1806 ANTENNA__1744__A1
*1807 ANTENNA__1746__B1
*1808 ANTENNA__1750__A1
*1809 ANTENNA__1752__B1
*1810 ANTENNA__1756__A1
*1811 ANTENNA__1758__B1
*1812 ANTENNA__1762__A1
*1813 ANTENNA__1764__B1
*1814 ANTENNA__1768__A1
*1815 ANTENNA__1769__A1
*1816 ANTENNA__1769__C1
*1817 ANTENNA__1773__A1
*1818 ANTENNA__1776__A
*1819 ANTENNA__1777__A2
*1820 ANTENNA__1777__C1
*1821 ANTENNA__1778__A
*1822 ANTENNA__1781__A1
*1823 ANTENNA__1783__A2
*1824 ANTENNA__1783__C1
*1825 ANTENNA__1784__A
*1826 ANTENNA__1787__A1
*1827 ANTENNA__1789__A1
*1828 ANTENNA__1789__A2
*1829 ANTENNA__1789__C1
*1830 ANTENNA__1790__A
*1831 ANTENNA__1793__A1
*1832 ANTENNA__1795__A2
*1833 ANTENNA__1795__C1
*1834 ANTENNA__1796__A
*1835 ANTENNA__1799__A1
*1836 ANTENNA__1801__A2
*1837 ANTENNA__1801__C1
*1838 ANTENNA__1802__A
*1839 ANTENNA__1805__A1
*1840 ANTENNA__1807__A2
*1841 ANTENNA__1807__C1
*1842 ANTENNA__1808__A
*1843 ANTENNA__1811__A1
*1844 ANTENNA__1812__A2
*1845 ANTENNA__1812__C1
*1846 ANTENNA__1813__A1
*1847 ANTENNA__1815__B1_N
*1848 ANTENNA__1817__A1
*1849 ANTENNA__1817__A2
*1850 ANTENNA__1817__C1
*1851 ANTENNA__1818__A1
*1852 ANTENNA__1820__B2
*1853 ANTENNA__1824__B
*1854 ANTENNA__1826__D
*1855 ANTENNA__1830__A
*1856 ANTENNA__1830__D
*1857 ANTENNA__1832__S
*1858 ANTENNA__1833__A
*1859 ANTENNA__1834__S
*1860 ANTENNA__1835__A
*1861 ANTENNA__1836__S
*1862 ANTENNA__1837__A
*1863 ANTENNA__1838__S
*1864 ANTENNA__1839__A
*1865 ANTENNA__1840__S
*1866 ANTENNA__1841__A
*1867 ANTENNA__1842__S
*1868 ANTENNA__1843__A
*1869 ANTENNA__1844__S
*1870 ANTENNA__1845__A
*1871 ANTENNA__1846__S
*1872 ANTENNA__1847__A
*1873 ANTENNA__1848__S
*1874 ANTENNA__1849__A
*1875 ANTENNA__1850__S
*1876 ANTENNA__1851__A
*1877 ANTENNA__1852__S
*1878 ANTENNA__1853__A
*1879 ANTENNA__1854__S
*1880 ANTENNA__1855__A
*1881 ANTENNA__1856__S
*1882 ANTENNA__1857__A
*1883 ANTENNA__1858__S
*1884 ANTENNA__1859__A
*1885 ANTENNA__1860__S
*1886 ANTENNA__1861__A
*1887 ANTENNA__1862__S
*1888 ANTENNA__1863__A
*1889 ANTENNA__1864__B
*1890 ANTENNA__1865__B
*1891 ANTENNA__1866__B
*1892 ANTENNA__1868__B
*1893 ANTENNA__1869__A
*1894 ANTENNA__1870__A
*1895 ANTENNA__1870__B
*1896 ANTENNA__1871__A
*1897 ANTENNA__1871__B
*1898 ANTENNA__1873__A
*1899 ANTENNA__1876__S
*1900 ANTENNA__1877__A1
*1901 ANTENNA__1878__A1
*1902 ANTENNA__1880__A
*1903 ANTENNA__1883__C1
*1904 ANTENNA__1886__A2
*1905 ANTENNA__1888__A
*1906 ANTENNA__1888__D
*1907 ANTENNA__1891__B1
*1908 ANTENNA__1893__A2
*1909 ANTENNA__1895__A
*1910 ANTENNA__1896__A0
*1911 ANTENNA__1896__A1
*1912 ANTENNA__1898__A
*1913 ANTENNA__1899__B2
*1914 ANTENNA__1901__A1
*1915 ANTENNA__1902__A1
*1916 ANTENNA__1904__C1
*1917 ANTENNA__1905__A1
*1918 ANTENNA__1906__A1
*1919 ANTENNA__1906__S
*1920 ANTENNA__1909__A
*1921 ANTENNA__1912__A
*1922 ANTENNA__1914__B2
*1923 ANTENNA__1915__A2
*1924 ANTENNA__1916__A0
*1925 ANTENNA__1916__S
*1926 ANTENNA__1918__A
*1927 ANTENNA__1919__A
*1928 ANTENNA__1919__B