*SPEF "ieee 1481-1999"
*DESIGN "multiplexer"
*DATE "11:11:11 Fri 11 11, 1111"
*VENDOR "OpenRCX"
*PROGRAM "Parallel Extraction"
*VERSION "1.0"
*DESIGN_FLOW "NAME_SCOPE LOCAL" "PIN_CAP NONE"
*DIVIDER /
*DELIMITER :
*BUS_DELIMITER []
*T_UNIT 1 NS
*C_UNIT 1 PF
*R_UNIT 1 OHM
*L_UNIT 1 HENRY

*NAME_MAP
*1 custom_settings[0]
*2 custom_settings[10]
*3 custom_settings[11]
*4 custom_settings[12]
*5 custom_settings[13]
*6 custom_settings[14]
*7 custom_settings[15]
*8 custom_settings[16]
*9 custom_settings[17]
*10 custom_settings[18]
*11 custom_settings[19]
*12 custom_settings[1]
*13 custom_settings[20]
*14 custom_settings[21]
*15 custom_settings[22]
*16 custom_settings[23]
*17 custom_settings[24]
*18 custom_settings[25]
*19 custom_settings[26]
*20 custom_settings[27]
*21 custom_settings[28]
*22 custom_settings[29]
*23 custom_settings[2]
*24 custom_settings[30]
*25 custom_settings[31]
*26 custom_settings[3]
*27 custom_settings[4]
*28 custom_settings[5]
*29 custom_settings[6]
*30 custom_settings[7]
*31 custom_settings[8]
*32 custom_settings[9]
*33 io_in_0
*34 net321
*35 io_oeb[10]
*36 io_oeb[11]
*37 io_oeb[12]
*38 io_oeb[13]
*39 io_oeb[14]
*40 io_oeb[15]
*41 io_oeb[16]
*42 io_oeb[17]
*43 io_oeb[18]
*44 io_oeb[19]
*45 io_oeb[1]
*46 io_oeb[20]
*47 io_oeb[21]
*48 io_oeb[22]
*49 io_oeb[23]
*50 io_oeb[24]
*51 io_oeb[25]
*52 io_oeb[26]
*53 io_oeb[27]
*54 io_oeb[28]
*55 io_oeb[29]
*56 io_oeb[2]
*57 io_oeb[30]
*58 io_oeb[31]
*59 io_oeb[32]
*60 io_oeb[33]
*61 io_oeb[34]
*62 io_oeb[35]
*63 io_oeb[36]
*64 io_oeb[37]
*65 net318
*66 io_oeb[4]
*67 io_oeb[5]
*68 io_oeb[6]
*69 io_oeb[7]
*70 io_oeb[8]
*71 io_oeb[9]
*72 io_oeb_scrapcpu[0]
*73 io_oeb_scrapcpu[10]
*74 io_oeb_scrapcpu[11]
*75 io_oeb_scrapcpu[12]
*76 io_oeb_scrapcpu[13]
*77 io_oeb_scrapcpu[14]
*78 io_oeb_scrapcpu[15]
*79 io_oeb_scrapcpu[16]
*80 io_oeb_scrapcpu[17]
*81 io_oeb_scrapcpu[18]
*82 io_oeb_scrapcpu[19]
*83 io_oeb_scrapcpu[1]
*84 io_oeb_scrapcpu[20]
*85 io_oeb_scrapcpu[21]
*86 io_oeb_scrapcpu[22]
*87 io_oeb_scrapcpu[23]
*88 io_oeb_scrapcpu[24]
*89 io_oeb_scrapcpu[25]
*90 io_oeb_scrapcpu[26]
*91 io_oeb_scrapcpu[27]
*92 io_oeb_scrapcpu[28]
*93 io_oeb_scrapcpu[29]
*94 io_oeb_scrapcpu[2]
*95 io_oeb_scrapcpu[30]
*96 io_oeb_scrapcpu[31]
*97 io_oeb_scrapcpu[32]
*98 io_oeb_scrapcpu[33]
*99 io_oeb_scrapcpu[34]
*100 io_oeb_scrapcpu[35]
*101 io_oeb_scrapcpu[3]
*102 io_oeb_scrapcpu[4]
*103 io_oeb_scrapcpu[5]
*104 io_oeb_scrapcpu[6]
*105 io_oeb_scrapcpu[7]
*106 io_oeb_scrapcpu[8]
*107 io_oeb_scrapcpu[9]
*108 net319
*109 io_out[10]
*110 io_out[11]
*111 io_out[12]
*112 io_out[13]
*113 io_out[14]
*114 io_out[15]
*115 io_out[16]
*116 io_out[17]
*117 io_out[18]
*118 io_out[19]
*119 io_out[1]
*120 io_out[20]
*121 io_out[21]
*122 io_out[22]
*123 io_out[23]
*124 io_out[24]
*125 io_out[25]
*126 io_out[26]
*127 io_out[27]
*128 io_out[28]
*129 io_out[29]
*130 io_out[2]
*131 io_out[30]
*132 io_out[31]
*133 io_out[32]
*134 io_out[33]
*135 io_out[34]
*136 io_out[35]
*137 io_out[36]
*138 io_out[37]
*139 io_out[3]
*140 io_out[4]
*141 io_out[5]
*142 io_out[6]
*143 io_out[7]
*144 io_out[8]
*145 io_out[9]
*146 io_out_scrapcpu[0]
*147 io_out_scrapcpu[10]
*148 io_out_scrapcpu[11]
*149 io_out_scrapcpu[12]
*150 io_out_scrapcpu[13]
*151 io_out_scrapcpu[14]
*152 io_out_scrapcpu[15]
*153 io_out_scrapcpu[16]
*154 io_out_scrapcpu[17]
*155 io_out_scrapcpu[18]
*156 io_out_scrapcpu[19]
*157 io_out_scrapcpu[1]
*158 io_out_scrapcpu[20]
*159 io_out_scrapcpu[21]
*160 io_out_scrapcpu[22]
*161 io_out_scrapcpu[23]
*162 io_out_scrapcpu[24]
*163 io_out_scrapcpu[25]
*164 io_out_scrapcpu[26]
*165 io_out_scrapcpu[27]
*166 io_out_scrapcpu[28]
*167 io_out_scrapcpu[29]
*168 io_out_scrapcpu[2]
*169 io_out_scrapcpu[30]
*170 io_out_scrapcpu[31]
*171 io_out_scrapcpu[32]
*172 io_out_scrapcpu[33]
*173 io_out_scrapcpu[34]
*174 io_out_scrapcpu[35]
*175 io_out_scrapcpu[3]
*176 io_out_scrapcpu[4]
*177 io_out_scrapcpu[5]
*178 io_out_scrapcpu[6]
*179 io_out_scrapcpu[7]
*180 io_out_scrapcpu[8]
*181 io_out_scrapcpu[9]
*182 net322
*183 la_data_out[10]
*184 la_data_out[11]
*185 la_data_out[12]
*186 la_data_out[13]
*187 la_data_out[14]
*188 la_data_out[15]
*189 la_data_out[16]
*190 la_data_out[17]
*191 la_data_out[18]
*192 la_data_out[19]
*193 la_data_out[1]
*194 la_data_out[20]
*195 la_data_out[21]
*196 la_data_out[22]
*197 la_data_out[23]
*198 la_data_out[24]
*199 la_data_out[25]
*200 la_data_out[26]
*201 la_data_out[27]
*202 la_data_out[28]
*203 la_data_out[29]
*204 la_data_out[2]
*205 la_data_out[30]
*206 la_data_out[31]
*207 la_data_out[32]
*208 la_data_out[33]
*209 la_data_out[34]
*210 la_data_out[35]
*211 la_data_out[36]
*212 la_data_out[37]
*213 la_data_out[38]
*214 la_data_out[39]
*215 net320
*216 la_data_out[4]
*217 la_data_out[5]
*218 la_data_out[6]
*219 la_data_out[7]
*220 la_data_out[8]
*221 la_data_out[9]
*222 rst_scrapcpu
*225 wb_clk_i
*226 wb_rst_i
*227 wbs_ack_o
*228 wbs_adr_i[0]
*229 wbs_adr_i[10]
*230 wbs_adr_i[11]
*231 wbs_adr_i[12]
*232 wbs_adr_i[13]
*233 wbs_adr_i[14]
*234 wbs_adr_i[15]
*235 wbs_adr_i[16]
*236 wbs_adr_i[17]
*237 wbs_adr_i[18]
*238 wbs_adr_i[19]
*239 wbs_adr_i[1]
*240 wbs_adr_i[20]
*241 wbs_adr_i[21]
*242 wbs_adr_i[22]
*243 wbs_adr_i[23]
*244 wbs_adr_i[24]
*245 wbs_adr_i[25]
*246 wbs_adr_i[26]
*247 wbs_adr_i[27]
*248 wbs_adr_i[28]
*249 wbs_adr_i[29]
*250 wbs_adr_i[2]
*251 wbs_adr_i[30]
*252 wbs_adr_i[31]
*253 wbs_adr_i[3]
*254 wbs_adr_i[4]
*255 wbs_adr_i[5]
*256 wbs_adr_i[6]
*257 wbs_adr_i[7]
*258 wbs_adr_i[8]
*259 wbs_adr_i[9]
*260 wbs_cyc_i
*261 wbs_dat_i[0]
*262 wbs_dat_i[10]
*263 wbs_dat_i[11]
*264 wbs_dat_i[12]
*265 wbs_dat_i[13]
*266 wbs_dat_i[14]
*267 wbs_dat_i[15]
*268 wbs_dat_i[16]
*269 wbs_dat_i[17]
*270 wbs_dat_i[18]
*271 wbs_dat_i[19]
*272 wbs_dat_i[1]
*273 wbs_dat_i[20]
*274 wbs_dat_i[21]
*275 wbs_dat_i[22]
*276 wbs_dat_i[23]
*277 wbs_dat_i[24]
*278 wbs_dat_i[25]
*279 wbs_dat_i[26]
*280 wbs_dat_i[27]
*281 wbs_dat_i[28]
*282 wbs_dat_i[29]
*283 wbs_dat_i[2]
*284 wbs_dat_i[30]
*285 wbs_dat_i[31]
*286 wbs_dat_i[3]
*287 wbs_dat_i[4]
*288 wbs_dat_i[5]
*289 wbs_dat_i[6]
*290 wbs_dat_i[7]
*291 wbs_dat_i[8]
*292 wbs_dat_i[9]
*293 wbs_dat_o[0]
*294 wbs_dat_o[10]
*295 wbs_dat_o[11]
*296 wbs_dat_o[12]
*297 wbs_dat_o[13]
*298 wbs_dat_o[14]
*299 wbs_dat_o[15]
*300 wbs_dat_o[16]
*301 wbs_dat_o[17]
*302 wbs_dat_o[18]
*303 wbs_dat_o[19]
*304 wbs_dat_o[1]
*305 wbs_dat_o[20]
*306 wbs_dat_o[21]
*307 wbs_dat_o[22]
*308 wbs_dat_o[23]
*309 wbs_dat_o[24]
*310 wbs_dat_o[25]
*311 wbs_dat_o[26]
*312 wbs_dat_o[27]
*313 wbs_dat_o[28]
*314 wbs_dat_o[29]
*315 wbs_dat_o[2]
*316 wbs_dat_o[30]
*317 wbs_dat_o[31]
*318 wbs_dat_o[3]
*319 wbs_dat_o[4]
*320 wbs_dat_o[5]
*321 wbs_dat_o[6]
*322 wbs_dat_o[7]
*323 wbs_dat_o[8]
*324 wbs_dat_o[9]
*325 wbs_stb_i
*326 wbs_we_i
*327 _000_
*328 _001_
*329 _002_
*330 _003_
*331 _004_
*332 _005_
*333 _006_
*334 _007_
*335 _008_
*336 _009_
*337 _010_
*338 _011_
*339 _012_
*340 _013_
*341 _014_
*342 _015_
*343 _016_
*344 _017_
*345 _018_
*346 _019_
*347 _020_
*348 _021_
*349 _022_
*350 _023_
*351 _024_
*352 _025_
*353 _026_
*354 _027_
*355 _028_
*356 _029_
*357 _030_
*358 _031_
*359 _032_
*360 _033_
*361 _034_
*362 _035_
*363 _036_
*364 _037_
*365 _038_
*366 _039_
*367 _040_
*368 _041_
*369 _042_
*370 _043_
*371 _044_
*372 _045_
*373 _046_
*374 _047_
*375 _048_
*376 _049_
*377 _050_
*378 _051_
*379 _052_
*380 _053_
*381 _054_
*382 _055_
*383 _056_
*384 _057_
*385 _058_
*386 _059_
*387 _060_
*388 _061_
*389 _062_
*390 _063_
*391 _064_
*392 _065_
*393 _066_
*394 _067_
*395 _068_
*396 _069_
*397 _070_
*398 _071_
*399 _072_
*400 _073_
*401 _074_
*402 _075_
*403 _076_
*404 _077_
*405 _078_
*406 _079_
*407 _080_
*408 _081_
*409 _082_
*410 _083_
*411 _084_
*412 _085_
*413 _086_
*414 _087_
*415 _088_
*416 _089_
*417 _090_
*418 _091_
*419 _092_
*420 _093_
*421 _094_
*422 _095_
*423 _096_
*424 _097_
*425 _098_
*426 _099_
*427 _100_
*428 _101_
*429 _102_
*430 _103_
*431 _104_
*432 _105_
*433 _106_
*434 _107_
*435 _108_
*436 _109_
*437 _110_
*438 _111_
*439 _112_
*440 _113_
*441 _114_
*442 _115_
*443 _116_
*444 _117_
*445 _118_
*446 _119_
*447 _120_
*448 _121_
*449 _122_
*450 _123_
*451 _124_
*452 _125_
*453 _126_
*454 _127_
*455 _128_
*456 _129_
*457 _130_
*458 _131_
*459 _132_
*460 _133_
*461 _134_
*462 _135_
*463 _136_
*464 _137_
*465 _138_
*466 _139_
*467 _140_
*468 _141_
*469 _142_
*470 _143_
*471 _144_
*472 _145_
*473 _146_
*474 _147_
*475 _148_
*476 _149_
*477 _150_
*478 _151_
*479 _152_
*480 _153_
*481 _154_
*482 _155_
*483 _156_
*484 _157_
*485 _158_
*486 _159_
*487 _160_
*488 _161_
*489 _162_
*490 _163_
*491 _164_
*492 _165_
*493 _166_
*494 _167_
*495 _168_
*496 _169_
*497 _170_
*498 _171_
*499 _172_
*500 _173_
*501 _174_
*502 _175_
*503 _176_
*504 _177_
*505 _178_
*506 _179_
*507 _180_
*508 _181_
*509 _182_
*510 _183_
*511 _184_
*512 _185_
*513 _186_
*514 _187_
*515 _188_
*516 _189_
*517 _190_
*518 _191_
*519 _192_
*520 _193_
*521 _194_
*522 _195_
*523 _196_
*524 _197_
*525 _198_
*526 _199_
*527 _200_
*528 _201_
*529 _202_
*530 _203_
*531 _204_
*532 _205_
*533 _206_
*534 _207_
*535 _208_
*536 _209_
*537 _210_
*538 _211_
*539 _212_
*540 _213_
*541 _214_
*542 _215_
*543 _216_
*544 _217_
*545 _218_
*546 _219_
*547 _220_
*548 _221_
*549 _222_
*550 _223_
*551 _224_
*552 _225_
*553 _226_
*554 _227_
*555 _228_
*556 _229_
*557 _230_
*558 _231_
*559 _232_
*560 _233_
*561 _234_
*562 _235_
*563 _236_
*564 _237_
*565 _238_
*566 _239_
*567 _240_
*568 _241_
*569 _242_
*570 _243_
*571 _244_
*572 _245_
*573 _246_
*574 _247_
*575 _248_
*576 _249_
*577 _250_
*578 _251_
*579 _252_
*580 _253_
*581 _254_
*582 _255_
*583 _256_
*584 _257_
*585 _258_
*586 _259_
*587 _260_
*588 _261_
*589 _262_
*590 _263_
*591 _264_
*592 _265_
*593 _266_
*594 _267_
*595 _268_
*596 _269_
*597 _270_
*598 _271_
*599 _272_
*600 _273_
*601 _274_
*602 _275_
*603 _276_
*604 _277_
*605 _278_
*606 _279_
*607 _280_
*608 _281_
*609 _282_
*610 _283_
*611 _284_
*612 _285_
*613 _286_
*614 _287_
*615 _288_
*616 _289_
*617 _290_
*618 _291_
*619 _292_
*620 _293_
*621 _294_
*622 _295_
*623 _296_
*624 _297_
*625 _298_
*626 _299_
*627 _300_
*628 _301_
*629 _302_
*630 _303_
*631 _304_
*632 _305_
*633 _306_
*634 _307_
*635 _308_
*636 _309_
*637 _310_
*638 _311_
*639 _312_
*640 _313_
*641 _314_
*642 _315_
*643 clknet_0_wb_clk_i
*644 clknet_3_0__leaf_wb_clk_i
*645 clknet_3_1__leaf_wb_clk_i
*646 clknet_3_2__leaf_wb_clk_i
*647 clknet_3_3__leaf_wb_clk_i
*648 clknet_3_4__leaf_wb_clk_i
*649 clknet_3_5__leaf_wb_clk_i
*650 clknet_3_6__leaf_wb_clk_i
*651 clknet_3_7__leaf_wb_clk_i
*652 design_select\[0\]
*653 design_select\[1\]
*654 design_select\[2\]
*655 design_select\[3\]
*656 net1
*657 net10
*658 net100
*659 net101
*660 net102
*661 net103
*662 net104
*663 net105
*664 net106
*665 net107
*666 net108
*667 net109
*668 net11
*669 net110
*670 net111
*671 net112
*672 net113
*673 net114
*674 net115
*675 net116
*676 net117
*677 net118
*678 net119
*679 net12
*680 net120
*681 net121
*682 net122
*683 net123
*684 net124
*685 net125
*686 net126
*687 net127
*688 net128
*689 net129
*690 net13
*691 net130
*692 net131
*693 net132
*694 net133
*695 net134
*696 net135
*697 net136
*698 net137
*699 net138
*700 net139
*701 net14
*702 net140
*703 net141
*704 net142
*705 net143
*706 net144
*707 net145
*708 net146
*709 net147
*710 net148
*711 net149
*712 net15
*713 net150
*714 net151
*715 net152
*716 net153
*717 net154
*718 net155
*719 net156
*720 net157
*721 net158
*722 net159
*723 net16
*724 net160
*725 net161
*726 net162
*727 net163
*728 net164
*729 net165
*730 net166
*731 net167
*732 net168
*733 net169
*734 net17
*735 net170
*736 net171
*737 net172
*738 net173
*739 net174
*740 net175
*741 net176
*742 net177
*743 net178
*744 net179
*745 net18
*746 net180
*747 net181
*748 net182
*749 net183
*750 net184
*751 net185
*752 net186
*753 net187
*754 net188
*755 net189
*756 net19
*757 net190
*758 net191
*759 net192
*760 net193
*761 net194
*762 net195
*763 net196
*764 net197
*765 net198
*766 net199
*767 net2
*768 net20
*769 net200
*770 net201
*771 net202
*772 net203
*773 net204
*774 net205
*775 net206
*776 net207
*777 net208
*778 net209
*779 net21
*780 net210
*781 net211
*782 net212
*783 net213
*784 net214
*785 net215
*786 net216
*787 net217
*788 net218
*789 net219
*790 net22
*791 net220
*792 net221
*793 net222
*794 net223
*795 net224
*796 net225
*797 net226
*798 net227
*799 net228
*800 net229
*801 net23
*802 net230
*803 net231
*804 net232
*805 net233
*806 net234
*807 net235
*808 net236
*809 net237
*810 net238
*811 net239
*812 net24
*813 net240
*814 net241
*815 net242
*816 net243
*817 net244
*818 net245
*819 net246
*820 net247
*821 net248
*822 net249
*823 net25
*824 net250
*825 net251
*826 net252
*827 net253
*828 net254
*829 net255
*830 net256
*831 net257
*832 net258
*833 net259
*834 net26
*835 net260
*836 net261
*837 net262
*838 net263
*839 net264
*840 net265
*841 net266
*842 net267
*843 net268
*844 net269
*845 net27
*846 net270
*847 net271
*848 net272
*849 net273
*850 net274
*851 net275
*852 net276
*853 net277
*854 net278
*855 net279
*856 net28
*857 net280
*858 net281
*859 net282
*860 net283
*861 net284
*862 net285
*863 net286
*864 net287
*865 net288
*866 net289
*867 net29
*868 net290
*869 net291
*870 net292
*871 net293
*872 net294
*873 net295
*874 net296
*875 net297
*876 net298
*877 net299
*878 net3
*879 net30
*880 net300
*881 net301
*882 net302
*883 net303
*884 net304
*885 net305
*886 net306
*887 net307
*888 net308
*889 net309
*890 net31
*891 net310
*892 net311
*893 net312
*894 net313
*895 net314
*896 net315
*897 net316
*898 net317
*899 net32
*900 net323
*901 net324
*902 net325
*903 net326
*904 net327
*905 net328
*906 net329
*907 net33
*908 net330
*909 net331
*910 net332
*911 net333
*912 net334
*913 net335
*914 net336
*915 net337
*916 net338
*917 net339
*918 net34
*919 net340
*920 net341
*921 net342
*922 net343
*923 net344
*924 net345
*925 net346
*926 net347
*927 net348
*928 net349
*929 net35
*930 net350
*931 net351
*932 net352
*933 net353
*934 net354
*935 net355
*936 net356
*937 net357
*938 net358
*939 net359
*940 net36
*941 net360
*942 net361
*943 net362
*944 net363
*945 net364
*946 net365
*947 net366
*948 net367
*949 net368
*950 net369
*951 net37
*952 net370
*953 net371
*954 net372
*955 net373
*956 net374
*957 net375
*958 net376
*959 net377
*960 net378
*961 net379
*962 net38
*963 net380
*964 net381
*965 net382
*966 net383
*967 net384
*968 net385
*969 net386
*970 net387
*971 net388
*972 net389
*973 net39
*974 net390
*975 net391
*976 net392
*977 net393
*978 net394
*979 net395
*980 net396
*981 net397
*982 net398
*983 net399
*984 net4
*985 net40
*986 net400
*987 net401
*988 net402
*989 net403
*990 net404
*991 net405
*992 net406
*993 net407
*994 net408
*995 net409
*996 net41
*997 net410
*998 net411
*999 net412
*1000 net413
*1001 net414
*1002 net415
*1003 net416
*1004 net417
*1005 net418
*1006 net419
*1007 net42
*1008 net420
*1009 net421
*1010 net422
*1011 net423
*1012 net424
*1013 net425
*1014 net426
*1015 net427
*1016 net428
*1017 net429
*1018 net43
*1019 net430
*1020 net431
*1021 net432
*1022 net433
*1023 net434
*1024 net435
*1025 net436
*1026 net437
*1027 net438
*1028 net439
*1029 net44
*1030 net440
*1031 net441
*1032 net442
*1033 net443
*1034 net444
*1035 net445
*1036 net446
*1037 net447
*1038 net448
*1039 net449
*1040 net45
*1041 net450
*1042 net451
*1043 net452
*1044 net453
*1045 net454
*1046 net455
*1047 net456
*1048 net457
*1049 net458
*1050 net459
*1051 net46
*1052 net460
*1053 net461
*1054 net462
*1055 net463
*1056 net464
*1057 net465
*1058 net466
*1059 net467
*1060 net468
*1061 net469
*1062 net47
*1063 net470
*1064 net471
*1065 net472
*1066 net473
*1067 net474
*1068 net475
*1069 net476
*1070 net477
*1071 net478
*1072 net479
*1073 net48
*1074 net480
*1075 net481
*1076 net482
*1077 net483
*1078 net484
*1079 net485
*1080 net486
*1081 net487
*1082 net488
*1083 net489
*1084 net49
*1085 net490
*1086 net491
*1087 net492
*1088 net493
*1089 net494
*1090 net495
*1091 net496
*1092 net497
*1093 net498
*1094 net499
*1095 net5
*1096 net50
*1097 net500
*1098 net501
*1099 net502
*1100 net503
*1101 net504
*1102 net505
*1103 net506
*1104 net507
*1105 net508
*1106 net509
*1107 net51
*1108 net510
*1109 net511
*1110 net512
*1111 net513
*1112 net514
*1113 net515
*1114 net516
*1115 net517
*1116 net518
*1117 net519
*1118 net52
*1119 net520
*1120 net521
*1121 net522
*1122 net523
*1123 net524
*1124 net525
*1125 net526
*1126 net527
*1127 net528
*1128 net529
*1129 net53
*1130 net530
*1131 net531
*1132 net532
*1133 net533
*1134 net534
*1135 net535
*1136 net536
*1137 net537
*1138 net538
*1139 net539
*1140 net54
*1141 net540
*1142 net541
*1143 net542
*1144 net543
*1145 net544
*1146 net545
*1147 net546
*1148 net547
*1149 net548
*1150 net549
*1151 net55
*1152 net550
*1153 net551
*1154 net552
*1155 net553
*1156 net554
*1157 net555
*1158 net556
*1159 net56
*1160 net57
*1161 net58
*1162 net59
*1163 net6
*1164 net60
*1165 net61
*1166 net62
*1167 net63
*1168 net64
*1169 net65
*1170 net66
*1171 net67
*1172 net68
*1173 net69
*1174 net7
*1175 net70
*1176 net71
*1177 net72
*1178 net73
*1179 net74
*1180 net75
*1181 net76
*1182 net77
*1183 net78
*1184 net79
*1185 net8
*1186 net80
*1187 net81
*1188 net82
*1189 net83
*1190 net84
*1191 net85
*1192 net86
*1193 net87
*1194 net88
*1195 net89
*1196 net9
*1197 net90
*1198 net91
*1199 net92
*1200 net93
*1201 net94
*1202 net95
*1203 net96
*1204 net97
*1205 net98
*1206 net99
*1207 wb_counter\[0\]
*1208 wb_counter\[10\]
*1209 wb_counter\[11\]
*1210 wb_counter\[12\]
*1211 wb_counter\[13\]
*1212 wb_counter\[14\]
*1213 wb_counter\[15\]
*1214 wb_counter\[16\]
*1215 wb_counter\[17\]
*1216 wb_counter\[18\]
*1217 wb_counter\[19\]
*1218 wb_counter\[1\]
*1219 wb_counter\[20\]
*1220 wb_counter\[21\]
*1221 wb_counter\[22\]
*1222 wb_counter\[23\]
*1223 wb_counter\[24\]
*1224 wb_counter\[26\]
*1225 wb_counter\[27\]
*1226 wb_counter\[28\]
*1227 wb_counter\[29\]
*1228 wb_counter\[2\]
*1229 wb_counter\[30\]
*1230 wb_counter\[31\]
*1231 wb_counter\[3\]
*1232 wb_counter\[4\]
*1233 wb_counter\[5\]
*1234 wb_counter\[6\]
*1235 wb_counter\[7\]
*1236 wb_counter\[8\]
*1237 wb_counter\[9\]
*1238 wb_feedback_delay
*1239 wb_override_act
*1240 wb_rst_override
*1241 ANTENNA__318__A
*1242 ANTENNA__319__A0
*1243 ANTENNA__322__A
*1244 ANTENNA__322__B
*1245 ANTENNA__356__A
*1246 ANTENNA__359__B
*1247 ANTENNA__360__B
*1248 ANTENNA__361__B
*1249 ANTENNA__362__B
*1250 ANTENNA__363__B
*1251 ANTENNA__364__B
*1252 ANTENNA__365__B
*1253 ANTENNA__366__B
*1254 ANTENNA__367__B
*1255 ANTENNA__368__B
*1256 ANTENNA__369__B
*1257 ANTENNA__370__B
*1258 ANTENNA__371__B
*1259 ANTENNA__372__B
*1260 ANTENNA__373__B
*1261 ANTENNA__374__A
*1262 ANTENNA__374__B
*1263 ANTENNA__375__A
*1264 ANTENNA__375__B
*1265 ANTENNA__376__A
*1266 ANTENNA__376__B
*1267 ANTENNA__377__A
*1268 ANTENNA__377__B
*1269 ANTENNA__378__A
*1270 ANTENNA__378__B
*1271 ANTENNA__379__A
*1272 ANTENNA__379__B
*1273 ANTENNA__380__A
*1274 ANTENNA__380__B
*1275 ANTENNA__381__A
*1276 ANTENNA__381__B
*1277 ANTENNA__382__A
*1278 ANTENNA__382__B
*1279 ANTENNA__383__A
*1280 ANTENNA__383__B
*1281 ANTENNA__384__A
*1282 ANTENNA__384__B
*1283 ANTENNA__385__A
*1284 ANTENNA__385__B
*1285 ANTENNA__386__A
*1286 ANTENNA__386__B
*1287 ANTENNA__387__A
*1288 ANTENNA__387__B
*1289 ANTENNA__388__A
*1290 ANTENNA__388__B
*1291 ANTENNA__389__A
*1292 ANTENNA__389__B
*1293 ANTENNA__390__A
*1294 ANTENNA__390__B
*1295 ANTENNA__391__A
*1296 ANTENNA__391__B
*1297 ANTENNA__392__A
*1298 ANTENNA__392__B
*1299 ANTENNA__393__A
*1300 ANTENNA__393__B
*1301 ANTENNA__394__B
*1302 ANTENNA__404__A
*1303 ANTENNA__404__B
*1304 ANTENNA__405__A2
*1305 ANTENNA__406__A
*1306 ANTENNA__406__B
*1307 ANTENNA__407__A2
*1308 ANTENNA__408__A
*1309 ANTENNA__408__B
*1310 ANTENNA__409__A2
*1311 ANTENNA__410__A
*1312 ANTENNA__410__B
*1313 ANTENNA__411__A2
*1314 ANTENNA__412__A
*1315 ANTENNA__412__B
*1316 ANTENNA__413__A2
*1317 ANTENNA__414__A
*1318 ANTENNA__414__B
*1319 ANTENNA__415__A2
*1320 ANTENNA__416__A
*1321 ANTENNA__416__B
*1322 ANTENNA__417__A2
*1323 ANTENNA__418__A
*1324 ANTENNA__418__B
*1325 ANTENNA__419__A2
*1326 ANTENNA__420__A
*1327 ANTENNA__420__B
*1328 ANTENNA__421__A2
*1329 ANTENNA__422__A
*1330 ANTENNA__422__B
*1331 ANTENNA__423__A2
*1332 ANTENNA__424__A
*1333 ANTENNA__424__B
*1334 ANTENNA__425__A2
*1335 ANTENNA__426__A
*1336 ANTENNA__427__C1
*1337 ANTENNA__428__A
*1338 ANTENNA__428__B
*1339 ANTENNA__429__A2
*1340 ANTENNA__430__A
*1341 ANTENNA__430__B
*1342 ANTENNA__431__A2
*1343 ANTENNA__432__A
*1344 ANTENNA__434__A
*1345 ANTENNA__436__A
*1346 ANTENNA__438__A
*1347 ANTENNA__440__A
*1348 ANTENNA__442__A
*1349 ANTENNA__444__A
*1350 ANTENNA__446__A
*1351 ANTENNA__447__A1
*1352 ANTENNA__448__A
*1353 ANTENNA__450__A
*1354 ANTENNA__450__B
*1355 ANTENNA__451__A2
*1356 ANTENNA__452__A
*1357 ANTENNA__453__A2
*1358 ANTENNA__454__A
*1359 ANTENNA__456__A
*1360 ANTENNA__458__A
*1361 ANTENNA__460__A
*1362 ANTENNA__462__A
*1363 ANTENNA__464__A
*1364 ANTENNA__466__A
*1365 ANTENNA__466__B
*1366 ANTENNA__468__B
*1367 ANTENNA__470__A1
*1368 ANTENNA__470__A3
*1369 ANTENNA__472__A1
*1370 ANTENNA__472__A3
*1371 ANTENNA__474__A1
*1372 ANTENNA__474__A3
*1373 ANTENNA__476__A1
*1374 ANTENNA__476__A3
*1375 ANTENNA__479__B1
*1376 ANTENNA__479__B2
*1377 ANTENNA__481__A2
*1378 ANTENNA__482__B1
*1379 ANTENNA__482__B2
*1380 ANTENNA__484__A2
*1381 ANTENNA__485__B1
*1382 ANTENNA__485__B2
*1383 ANTENNA__487__A2
*1384 ANTENNA__488__B1
*1385 ANTENNA__488__B2
*1386 ANTENNA__490__A2
*1387 ANTENNA__491__B1
*1388 ANTENNA__491__B2
*1389 ANTENNA__493__A2
*1390 ANTENNA__494__B1
*1391 ANTENNA__494__B2
*1392 ANTENNA__496__A2
*1393 ANTENNA__498__B
*1394 ANTENNA__499__B1
*1395 ANTENNA__499__B2
*1396 ANTENNA__500__A2
*1397 ANTENNA__501__B1
*1398 ANTENNA__501__B2
*1399 ANTENNA__502__A2
*1400 ANTENNA__503__B1
*1401 ANTENNA__503__B2
*1402 ANTENNA__503__C1
*1403 ANTENNA__505__A
*1404 ANTENNA__506__B1
*1405 ANTENNA__506__B2
*1406 ANTENNA__506__C1
*1407 ANTENNA__508__A
*1408 ANTENNA__509__B1
*1409 ANTENNA__509__B2
*1410 ANTENNA__509__C1
*1411 ANTENNA__511__A
*1412 ANTENNA__512__B1
*1413 ANTENNA__512__B2
*1414 ANTENNA__512__C1
*1415 ANTENNA__514__A
*1416 ANTENNA__515__B1
*1417 ANTENNA__515__B2
*1418 ANTENNA__515__C1
*1419 ANTENNA__517__A
*1420 ANTENNA__518__B1
*1421 ANTENNA__518__B2
*1422 ANTENNA__518__C1
*1423 ANTENNA__520__A
*1424 ANTENNA__521__B2
*1425 ANTENNA__521__C1
*1426 ANTENNA__524__C1
*1427 ANTENNA__527__B2
*1428 ANTENNA__527__C1
*1429 ANTENNA__530__B2
*1430 ANTENNA__530__C1
*1431 ANTENNA__533__B2
*1432 ANTENNA__539__B2
*1433 ANTENNA__542__B2
*1434 ANTENNA__545__B1
*1435 ANTENNA__545__B2
*1436 ANTENNA__548__B2
*1437 ANTENNA__551__B2
*1438 ANTENNA__554__A2
*1439 ANTENNA__554__B2
*1440 ANTENNA__554__C1
*1441 ANTENNA__557__B2
*1442 ANTENNA__557__C1
*1443 ANTENNA__560__B2
*1444 ANTENNA__560__C1
*1445 ANTENNA__563__C1
*1446 ANTENNA__566__B2
*1447 ANTENNA__566__C1
*1448 ANTENNA__569__B2
*1449 ANTENNA__569__C1
*1450 ANTENNA__571__A
*1451 ANTENNA__572__B2
*1452 ANTENNA__574__A
*1453 ANTENNA__575__B
*1454 ANTENNA__578__B
*1455 ANTENNA__579__A1
*1456 ANTENNA__579__A2
*1457 ANTENNA__582__B1
*1458 ANTENNA__583__A1
*1459 ANTENNA__583__A2
*1460 ANTENNA__586__B1
*1461 ANTENNA__587__A1
*1462 ANTENNA__587__A2
*1463 ANTENNA__590__A
*1464 ANTENNA__590__B
*1465 ANTENNA__591__A1
*1466 ANTENNA__594__B1
*1467 ANTENNA__595__A1
*1468 ANTENNA__595__A2
*1469 ANTENNA__598__B1
*1470 ANTENNA__599__A1
*1471 ANTENNA__599__A2
*1472 ANTENNA__602__B1
*1473 ANTENNA__603__A1
*1474 ANTENNA__603__A2
*1475 ANTENNA__606__B1
*1476 ANTENNA__607__A1
*1477 ANTENNA__607__A2
*1478 ANTENNA__610__B1
*1479 ANTENNA__611__A1
*1480 ANTENNA__611__A2
*1481 ANTENNA__614__B1
*1482 ANTENNA__615__A1
*1483 ANTENNA__618__B1
*1484 ANTENNA__619__A1
*1485 ANTENNA__623__A1
*1486 ANTENNA__623__C1
*1487 ANTENNA__626__B1
*1488 ANTENNA__627__A1
*1489 ANTENNA__627__C1
*1490 ANTENNA__629__A
*1491 ANTENNA__630__A1
*1492 ANTENNA__634__A1
*1493 ANTENNA__638__A1
*1494 ANTENNA__640__A
*1495 ANTENNA__641__A1
*1496 ANTENNA__645__A1
*1497 ANTENNA__649__A1
*1498 ANTENNA__652__B1
*1499 ANTENNA__653__A1
*1500 ANTENNA__655__A
*1501 ANTENNA__656__A1
*1502 ANTENNA__660__A
*1503 ANTENNA__661__C1
*1504 ANTENNA__663__A
*1505 ANTENNA__664__A1
*1506 ANTENNA__668__B1
*1507 ANTENNA__669__A1
*1508 ANTENNA__671__A
*1509 ANTENNA__672__A1
*1510 ANTENNA__673__B
*1511 ANTENNA__676__B1
*1512 ANTENNA__677__B1
*1513 ANTENNA__678__A1
*1514 ANTENNA__678__A2
*1515 ANTENNA__680__A
*1516 ANTENNA__681__A1
*1517 ANTENNA__681__C1
*1518 ANTENNA__685__B1
*1519 ANTENNA__686__A1
*1520 ANTENNA__686__A2
*1521 ANTENNA__689__B1
*1522 ANTENNA__690__A1
*1523 ANTENNA__690__A2
*1524 ANTENNA__692__A
*1525 ANTENNA__693__A1
*1526 ANTENNA__694__A
*1527 ANTENNA__700__B1
*1528 ANTENNA__701__A1
*1529 ANTENNA__703__A1
*1530 ANTENNA__703__A3
*1531 ANTENNA__704__A1
*1532 ANTENNA__705__A
*1533 ANTENNA__815__A
*1534 ANTENNA__816__A
*1535 ANTENNA__817__A
*1536 ANTENNA__818__A
*1537 ANTENNA__819__A
*1538 ANTENNA__820__A
*1539 ANTENNA__821__A
*1540 ANTENNA__822__A
*1541 ANTENNA__823__A
*1542 ANTENNA__824__A
*1543 ANTENNA__825__A
*1544 ANTENNA__826__A
*1545 ANTENNA__827__A
*1546 ANTENNA__828__A
*1547 ANTENNA__829__A
*1548 ANTENNA__830__A
*1549 ANTENNA__831__A
*1550 ANTENNA__832__A
*1551 ANTENNA__833__A
*1552 ANTENNA__834__A
*1553 ANTENNA__835__A
*1554 ANTENNA__836__A
*1555 ANTENNA__837__A
*1556 ANTENNA__838__A
*1557 ANTENNA__839__A
*1558 ANTENNA__840__A
*1559 ANTENNA__841__A
*1560 ANTENNA__842__A
*1561 ANTENNA__843__A
*1562 ANTENNA__844__A
*1563 ANTENNA__845__A
*1564 ANTENNA__846__A
*1565 ANTENNA__848__A
*1566 ANTENNA__849__A
*1567 ANTENNA__850__A
*1568 ANTENNA__851__A
*1569 ANTENNA_clkbuf_3_0__f_wb_clk_i_A
*1570 ANTENNA_clkbuf_3_1__f_wb_clk_i_A
*1571 ANTENNA_clkbuf_3_2__f_wb_clk_i_A
*1572 ANTENNA_clkbuf_3_3__f_wb_clk_i_A
*1573 ANTENNA_clkbuf_3_4__f_wb_clk_i_A
*1574 ANTENNA_clkbuf_3_5__f_wb_clk_i_A
*1575 ANTENNA_clkbuf_3_6__f_wb_clk_i_A
*1576 ANTENNA_clkbuf_3_7__f_wb_clk_i_A
*1577 ANTENNA_fanout290_A
*1578 ANTENNA_fanout291_A
*1579 ANTENNA_fanout292_A
*1580 ANTENNA_fanout294_A
*1581 ANTENNA_fanout296_A
*1582 ANTENNA_fanout302_A
*1583 ANTENNA_fanout304_A
*1584 ANTENNA_fanout305_A
*1585 ANTENNA_fanout308_A
*1586 ANTENNA_fanout309_A
*1587 ANTENNA_fanout310_A
*1588 ANTENNA_fanout312_A
*1589 ANTENNA_fanout316_A
*1590 ANTENNA_fanout317_A
*1591 ANTENNA_fanout3_A
*1592 ANTENNA_hold100_A
*1593 ANTENNA_hold102_A
*1594 ANTENNA_hold107_A
*1595 ANTENNA_hold110_A
*1596 ANTENNA_hold113_A
*1597 ANTENNA_hold116_A
*1598 ANTENNA_hold119_A
*1599 ANTENNA_hold122_A
*1600 ANTENNA_hold126_A
*1601 ANTENNA_hold132_A
*1602 ANTENNA_hold135_A
*1603 ANTENNA_hold144_A
*1604 ANTENNA_hold153_A
*1605 ANTENNA_hold176_A
*1606 ANTENNA_hold189_A
*1607 ANTENNA_hold190_A
*1608 ANTENNA_hold191_A
*1609 ANTENNA_hold192_A
*1610 ANTENNA_hold193_A
*1611 ANTENNA_hold194_A
*1612 ANTENNA_hold197_A
*1613 ANTENNA_hold198_A
*1614 ANTENNA_hold199_A
*1615 ANTENNA_hold200_A
*1616 ANTENNA_hold201_A
*1617 ANTENNA_hold202_A
*1618 ANTENNA_hold203_A
*1619 ANTENNA_hold204_A
*1620 ANTENNA_hold205_A
*1621 ANTENNA_hold206_A
*1622 ANTENNA_hold207_A
*1623 ANTENNA_hold208_A
*1624 ANTENNA_hold209_A
*1625 ANTENNA_hold210_A
*1626 ANTENNA_hold211_A
*1627 ANTENNA_hold212_A
*1628 ANTENNA_hold213_A
*1629 ANTENNA_hold214_A
*1630 ANTENNA_hold215_A
*1631 ANTENNA_hold216_A
*1632 ANTENNA_hold217_A
*1633 ANTENNA_hold218_A
*1634 ANTENNA_hold219_A
*1635 ANTENNA_hold222_A
*1636 ANTENNA_hold223_A
*1637 ANTENNA_hold225_A
*1638 ANTENNA_hold228_A
*1639 ANTENNA_hold27_A
*1640 ANTENNA_hold30_A
*1641 ANTENNA_hold33_A
*1642 ANTENNA_hold36_A
*1643 ANTENNA_hold41_A
*1644 ANTENNA_hold46_A
*1645 ANTENNA_hold49_A
*1646 ANTENNA_hold52_A
*1647 ANTENNA_hold55_A
*1648 ANTENNA_hold58_A
*1649 ANTENNA_hold61_A
*1650 ANTENNA_hold64_A
*1651 ANTENNA_hold73_A
*1652 ANTENNA_hold76_A
*1653 ANTENNA_hold79_A
*1654 ANTENNA_hold82_A
*1655 ANTENNA_hold85_A
*1656 ANTENNA_hold88_A
*1657 ANTENNA_hold91_A
*1658 ANTENNA_hold94_A
*1659 ANTENNA_hold97_A
*1660 ANTENNA_max_cap306_A
*1661 ANTENNA_max_cap307_A
*1662 ANTENNA_output113_A
*1663 ANTENNA_output114_A
*1664 ANTENNA_output115_A
*1665 ANTENNA_output116_A
*1666 ANTENNA_output117_A
*1667 ANTENNA_output118_A
*1668 ANTENNA_output119_A
*1669 ANTENNA_output120_A
*1670 ANTENNA_output121_A
*1671 ANTENNA_output122_A
*1672 ANTENNA_output123_A
*1673 ANTENNA_output124_A
*1674 ANTENNA_output125_A
*1675 ANTENNA_output126_A
*1676 ANTENNA_output127_A
*1677 ANTENNA_output128_A
*1678 ANTENNA_output129_A
*1679 ANTENNA_output130_A
*1680 ANTENNA_output131_A
*1681 ANTENNA_output132_A
*1682 ANTENNA_output133_A
*1683 ANTENNA_output134_A
*1684 ANTENNA_output135_A
*1685 ANTENNA_output136_A
*1686 ANTENNA_output137_A
*1687 ANTENNA_output138_A
*1688 ANTENNA_output139_A
*1689 ANTENNA_output140_A
*1690 ANTENNA_output141_A
*1691 ANTENNA_output142_A
*1692 ANTENNA_output143_A
*1693 ANTENNA_output144_A
*1694 ANTENNA_output145_A
*1695 ANTENNA_output146_A
*1696 ANTENNA_output147_A
*1697 ANTENNA_output148_A
*1698 ANTENNA_output149_A
*1699 ANTENNA_output150_A
*1700 ANTENNA_output151_A
*1701 ANTENNA_output152_A
*1702 ANTENNA_output153_A
*1703 ANTENNA_output154_A
*1704 ANTENNA_output155_A
*1705 ANTENNA_output156_A
*1706 ANTENNA_output157_A
*1707 ANTENNA_output158_A
*1708 ANTENNA_output159_A
*1709 ANTENNA_output160_A
*1710 ANTENNA_output161_A
*1711 ANTENNA_output162_A
*1712 ANTENNA_output163_A
*1713 ANTENNA_output164_A
*1714 ANTENNA_output165_A
*1715 ANTENNA_output166_A
*1716 ANTENNA_output167_A
*1717 ANTENNA_output168_A
*1718 ANTENNA_output169_A
*1719 ANTENNA_output170_A
*1720 ANTENNA_output171_A
*1721 ANTENNA_output172_A
*1722 ANTENNA_output173_A
*1723 ANTENNA_output174_A
*1724 ANTENNA_output175_A
*1725 ANTENNA_output176_A
*1726 ANTENNA_output177_A
*1727 ANTENNA_output178_A
*1728 ANTENNA_output179_A
*1729 ANTENNA_output180_A
*1730 ANTENNA_output181_A
*1731 ANTENNA_output182_A
*1732 ANTENNA_output183_A
*1733 ANTENNA_output184_A
*1734 ANTENNA_output185_A
*1735 ANTENNA_output186_A
*1736 ANTENNA_output187_A
*1737 ANTENNA_output188_A
*1738 ANTENNA_output189_A
*1739 ANTENNA_output190_A
*1740 ANTENNA_output191_A
*1741 ANTENNA_output192_A
*1742 ANTENNA_output193_A
*1743 ANTENNA_output194_A
*1744 ANTENNA_output195_A
*1745 ANTENNA_output196_A
*1746 ANTENNA_output197_A
*1747 ANTENNA_output198_A