*SPEF "ieee 1481-1999"
*DESIGN "multiplexer"
*DATE "11:11:11 Fri 11 11, 1111"
*VENDOR "OpenRCX"
*PROGRAM "Parallel Extraction"
*VERSION "1.0"
*DESIGN_FLOW "NAME_SCOPE LOCAL" "PIN_CAP NONE"
*DIVIDER /
*DELIMITER :
*BUS_DELIMITER []
*T_UNIT 1 NS
*C_UNIT 1 PF
*R_UNIT 1 OHM
*L_UNIT 1 HENRY

*NAME_MAP
*1 custom_settings[0]
*2 custom_settings[10]
*3 custom_settings[11]
*4 custom_settings[12]
*5 custom_settings[13]
*6 custom_settings[14]
*7 custom_settings[15]
*8 custom_settings[16]
*9 custom_settings[17]
*10 custom_settings[18]
*11 custom_settings[19]
*12 custom_settings[1]
*13 custom_settings[20]
*14 custom_settings[21]
*15 custom_settings[22]
*16 custom_settings[23]
*17 custom_settings[24]
*18 custom_settings[25]
*19 custom_settings[26]
*20 custom_settings[27]
*21 custom_settings[28]
*22 custom_settings[29]
*23 custom_settings[2]
*24 custom_settings[30]
*25 custom_settings[31]
*26 custom_settings[3]
*27 custom_settings[4]
*28 custom_settings[5]
*29 custom_settings[6]
*30 custom_settings[7]
*31 custom_settings[8]
*32 custom_settings[9]
*33 io_in_0
*34 net562
*35 io_oeb[10]
*36 io_oeb[11]
*37 io_oeb[12]
*38 io_oeb[13]
*39 io_oeb[14]
*40 io_oeb[15]
*41 io_oeb[16]
*42 io_oeb[17]
*43 io_oeb[18]
*44 io_oeb[19]
*45 io_oeb[1]
*46 io_oeb[20]
*47 io_oeb[21]
*48 io_oeb[22]
*49 io_oeb[23]
*50 io_oeb[24]
*51 io_oeb[25]
*52 io_oeb[26]
*53 io_oeb[27]
*54 io_oeb[28]
*55 io_oeb[29]
*56 io_oeb[2]
*57 io_oeb[30]
*58 io_oeb[31]
*59 io_oeb[32]
*60 io_oeb[33]
*61 io_oeb[34]
*62 io_oeb[35]
*63 io_oeb[36]
*64 io_oeb[37]
*65 net559
*66 io_oeb[4]
*67 io_oeb[5]
*68 io_oeb[6]
*69 io_oeb[7]
*70 io_oeb[8]
*71 io_oeb[9]
*72 io_oeb_6502
*73 io_oeb_as1802
*74 io_oeb_scrapcpu[0]
*75 io_oeb_scrapcpu[10]
*76 io_oeb_scrapcpu[11]
*77 io_oeb_scrapcpu[12]
*78 io_oeb_scrapcpu[13]
*79 io_oeb_scrapcpu[14]
*80 io_oeb_scrapcpu[15]
*81 io_oeb_scrapcpu[16]
*82 io_oeb_scrapcpu[17]
*83 io_oeb_scrapcpu[18]
*84 io_oeb_scrapcpu[19]
*85 io_oeb_scrapcpu[1]
*86 io_oeb_scrapcpu[20]
*87 io_oeb_scrapcpu[21]
*88 io_oeb_scrapcpu[22]
*89 io_oeb_scrapcpu[23]
*90 io_oeb_scrapcpu[24]
*91 io_oeb_scrapcpu[25]
*92 io_oeb_scrapcpu[26]
*93 io_oeb_scrapcpu[27]
*94 io_oeb_scrapcpu[28]
*95 io_oeb_scrapcpu[29]
*96 io_oeb_scrapcpu[2]
*97 io_oeb_scrapcpu[30]
*98 io_oeb_scrapcpu[31]
*99 io_oeb_scrapcpu[32]
*100 io_oeb_scrapcpu[33]
*101 io_oeb_scrapcpu[34]
*102 io_oeb_scrapcpu[35]
*103 io_oeb_scrapcpu[3]
*104 io_oeb_scrapcpu[4]
*105 io_oeb_scrapcpu[5]
*106 io_oeb_scrapcpu[6]
*107 io_oeb_scrapcpu[7]
*108 io_oeb_scrapcpu[8]
*109 io_oeb_scrapcpu[9]
*110 io_oeb_vliw[0]
*111 io_oeb_vliw[10]
*112 io_oeb_vliw[11]
*113 io_oeb_vliw[12]
*114 io_oeb_vliw[13]
*115 io_oeb_vliw[14]
*116 io_oeb_vliw[15]
*117 io_oeb_vliw[16]
*118 io_oeb_vliw[17]
*119 io_oeb_vliw[18]
*120 io_oeb_vliw[19]
*121 io_oeb_vliw[1]
*122 io_oeb_vliw[20]
*123 io_oeb_vliw[21]
*124 io_oeb_vliw[22]
*125 io_oeb_vliw[23]
*126 io_oeb_vliw[24]
*127 io_oeb_vliw[25]
*128 io_oeb_vliw[26]
*129 io_oeb_vliw[27]
*130 io_oeb_vliw[28]
*131 io_oeb_vliw[29]
*132 io_oeb_vliw[2]
*133 io_oeb_vliw[30]
*134 io_oeb_vliw[31]
*135 io_oeb_vliw[32]
*136 io_oeb_vliw[33]
*137 io_oeb_vliw[34]
*138 io_oeb_vliw[35]
*139 io_oeb_vliw[3]
*140 io_oeb_vliw[4]
*141 io_oeb_vliw[5]
*142 io_oeb_vliw[6]
*143 io_oeb_vliw[7]
*144 io_oeb_vliw[8]
*145 io_oeb_vliw[9]
*146 io_oeb_z80[0]
*147 io_oeb_z80[10]
*148 io_oeb_z80[11]
*149 io_oeb_z80[12]
*150 io_oeb_z80[13]
*151 io_oeb_z80[14]
*152 io_oeb_z80[15]
*153 io_oeb_z80[16]
*154 io_oeb_z80[17]
*155 io_oeb_z80[18]
*156 io_oeb_z80[19]
*157 io_oeb_z80[1]
*158 io_oeb_z80[20]
*159 io_oeb_z80[21]
*160 io_oeb_z80[22]
*161 io_oeb_z80[23]
*162 io_oeb_z80[24]
*163 io_oeb_z80[25]
*164 io_oeb_z80[26]
*165 io_oeb_z80[27]
*166 io_oeb_z80[28]
*167 io_oeb_z80[29]
*168 io_oeb_z80[2]
*169 io_oeb_z80[30]
*170 io_oeb_z80[31]
*171 io_oeb_z80[32]
*172 io_oeb_z80[33]
*173 io_oeb_z80[34]
*174 io_oeb_z80[35]
*175 io_oeb_z80[3]
*176 io_oeb_z80[4]
*177 io_oeb_z80[5]
*178 io_oeb_z80[6]
*179 io_oeb_z80[7]
*180 io_oeb_z80[8]
*181 io_oeb_z80[9]
*182 net560
*183 io_out[10]
*184 io_out[11]
*185 io_out[12]
*186 io_out[13]
*187 io_out[14]
*188 io_out[15]
*189 io_out[16]
*190 io_out[17]
*191 io_out[18]
*192 io_out[19]
*193 io_out[1]
*194 io_out[20]
*195 io_out[21]
*196 io_out[22]
*197 io_out[23]
*198 io_out[24]
*199 io_out[25]
*200 io_out[26]
*201 io_out[27]
*202 io_out[28]
*203 io_out[29]
*204 io_out[2]
*205 io_out[30]
*206 io_out[31]
*207 io_out[32]
*208 io_out[33]
*209 io_out[34]
*210 io_out[35]
*211 io_out[36]
*212 io_out[37]
*213 io_out[3]
*214 io_out[4]
*215 io_out[5]
*216 io_out[6]
*217 io_out[7]
*218 io_out[8]
*219 io_out[9]
*220 io_out_6502[0]
*221 io_out_6502[10]
*222 io_out_6502[11]
*223 io_out_6502[12]
*224 io_out_6502[13]
*225 io_out_6502[14]
*226 io_out_6502[15]
*227 io_out_6502[16]
*228 io_out_6502[17]
*229 io_out_6502[18]
*230 io_out_6502[19]
*231 io_out_6502[1]
*232 io_out_6502[20]
*233 io_out_6502[21]
*234 io_out_6502[22]
*235 io_out_6502[23]
*236 io_out_6502[24]
*237 io_out_6502[25]
*238 io_out_6502[26]
*239 io_out_6502[27]
*240 io_out_6502[28]
*241 io_out_6502[29]
*242 io_out_6502[2]
*243 io_out_6502[30]
*244 io_out_6502[31]
*245 io_out_6502[32]
*246 io_out_6502[33]
*247 io_out_6502[34]
*248 io_out_6502[35]
*249 io_out_6502[3]
*250 io_out_6502[4]
*251 io_out_6502[5]
*252 io_out_6502[6]
*253 io_out_6502[7]
*254 io_out_6502[8]
*255 io_out_6502[9]
*256 io_out_as1802[0]
*257 io_out_as1802[10]
*258 io_out_as1802[11]
*259 io_out_as1802[12]
*260 io_out_as1802[13]
*261 io_out_as1802[14]
*262 io_out_as1802[15]
*263 io_out_as1802[16]
*264 io_out_as1802[17]
*265 io_out_as1802[18]
*266 io_out_as1802[19]
*267 io_out_as1802[1]
*268 io_out_as1802[20]
*269 io_out_as1802[21]
*270 io_out_as1802[22]
*271 io_out_as1802[23]
*272 io_out_as1802[24]
*273 io_out_as1802[25]
*274 io_out_as1802[26]
*275 io_out_as1802[27]
*276 io_out_as1802[28]
*277 io_out_as1802[29]
*278 io_out_as1802[2]
*279 io_out_as1802[30]
*280 io_out_as1802[31]
*281 io_out_as1802[32]
*282 io_out_as1802[33]
*283 io_out_as1802[34]
*284 io_out_as1802[35]
*285 io_out_as1802[3]
*286 io_out_as1802[4]
*287 io_out_as1802[5]
*288 io_out_as1802[6]
*289 io_out_as1802[7]
*290 io_out_as1802[8]
*291 io_out_as1802[9]
*292 io_out_scrapcpu[0]
*293 io_out_scrapcpu[10]
*294 io_out_scrapcpu[11]
*295 io_out_scrapcpu[12]
*296 io_out_scrapcpu[13]
*297 io_out_scrapcpu[14]
*298 io_out_scrapcpu[15]
*299 io_out_scrapcpu[16]
*300 io_out_scrapcpu[17]
*301 io_out_scrapcpu[18]
*302 io_out_scrapcpu[19]
*303 io_out_scrapcpu[1]
*304 io_out_scrapcpu[20]
*305 io_out_scrapcpu[21]
*306 io_out_scrapcpu[22]
*307 io_out_scrapcpu[23]
*308 io_out_scrapcpu[24]
*309 io_out_scrapcpu[25]
*310 io_out_scrapcpu[26]
*311 io_out_scrapcpu[27]
*312 io_out_scrapcpu[28]
*313 io_out_scrapcpu[29]
*314 io_out_scrapcpu[2]
*315 io_out_scrapcpu[30]
*316 io_out_scrapcpu[31]
*317 io_out_scrapcpu[32]
*318 io_out_scrapcpu[33]
*319 io_out_scrapcpu[34]
*320 io_out_scrapcpu[35]
*321 io_out_scrapcpu[3]
*322 io_out_scrapcpu[4]
*323 io_out_scrapcpu[5]
*324 io_out_scrapcpu[6]
*325 io_out_scrapcpu[7]
*326 io_out_scrapcpu[8]
*327 io_out_scrapcpu[9]
*328 io_out_vliw[0]
*329 io_out_vliw[10]
*330 io_out_vliw[11]
*331 io_out_vliw[12]
*332 io_out_vliw[13]
*333 io_out_vliw[14]
*334 io_out_vliw[15]
*335 io_out_vliw[16]
*336 io_out_vliw[17]
*337 io_out_vliw[18]
*338 io_out_vliw[19]
*339 io_out_vliw[1]
*340 io_out_vliw[20]
*341 io_out_vliw[21]
*342 io_out_vliw[22]
*343 io_out_vliw[23]
*344 io_out_vliw[24]
*345 io_out_vliw[25]
*346 io_out_vliw[26]
*347 io_out_vliw[27]
*348 io_out_vliw[28]
*349 io_out_vliw[29]
*350 io_out_vliw[2]
*351 io_out_vliw[30]
*352 io_out_vliw[31]
*353 io_out_vliw[32]
*354 io_out_vliw[33]
*355 io_out_vliw[34]
*356 io_out_vliw[35]
*357 io_out_vliw[3]
*358 io_out_vliw[4]
*359 io_out_vliw[5]
*360 io_out_vliw[6]
*361 io_out_vliw[7]
*362 io_out_vliw[8]
*363 io_out_vliw[9]
*364 io_out_z80[0]
*365 io_out_z80[10]
*366 io_out_z80[11]
*367 io_out_z80[12]
*368 io_out_z80[13]
*369 io_out_z80[14]
*370 io_out_z80[15]
*371 io_out_z80[16]
*372 io_out_z80[17]
*373 io_out_z80[18]
*374 io_out_z80[19]
*375 io_out_z80[1]
*376 io_out_z80[20]
*377 io_out_z80[21]
*378 io_out_z80[22]
*379 io_out_z80[23]
*380 io_out_z80[24]
*381 io_out_z80[25]
*382 io_out_z80[26]
*383 io_out_z80[27]
*384 io_out_z80[28]
*385 io_out_z80[29]
*386 io_out_z80[2]
*387 io_out_z80[30]
*388 io_out_z80[31]
*389 io_out_z80[32]
*390 io_out_z80[33]
*391 io_out_z80[34]
*392 io_out_z80[35]
*393 io_out_z80[3]
*394 io_out_z80[4]
*395 io_out_z80[5]
*396 io_out_z80[6]
*397 io_out_z80[7]
*398 io_out_z80[8]
*399 io_out_z80[9]
*400 net563
*401 la_data_out[10]
*402 la_data_out[11]
*403 la_data_out[12]
*404 la_data_out[13]
*405 la_data_out[14]
*406 la_data_out[15]
*407 la_data_out[16]
*408 la_data_out[17]
*409 la_data_out[18]
*410 la_data_out[19]
*411 la_data_out[1]
*412 la_data_out[20]
*413 la_data_out[21]
*414 la_data_out[22]
*415 la_data_out[23]
*416 la_data_out[24]
*417 la_data_out[25]
*418 la_data_out[26]
*419 la_data_out[27]
*420 la_data_out[28]
*421 la_data_out[29]
*422 la_data_out[2]
*423 la_data_out[30]
*424 la_data_out[31]
*425 la_data_out[32]
*426 la_data_out[33]
*427 la_data_out[34]
*428 la_data_out[35]
*429 la_data_out[36]
*430 la_data_out[37]
*431 la_data_out[38]
*432 la_data_out[39]
*433 net561
*434 la_data_out[4]
*435 la_data_out[5]
*436 la_data_out[6]
*437 la_data_out[7]
*438 la_data_out[8]
*439 la_data_out[9]
*440 rst_6502
*441 rst_as1802
*442 rst_scrapcpu
*443 rst_vliw
*444 rst_z80
*447 wb_clk_i
*448 wb_rst_i
*449 wbs_ack_o
*450 wbs_adr_i[0]
*451 wbs_adr_i[10]
*452 wbs_adr_i[11]
*453 wbs_adr_i[12]
*454 wbs_adr_i[13]
*455 wbs_adr_i[14]
*456 wbs_adr_i[15]
*457 wbs_adr_i[16]
*458 wbs_adr_i[17]
*459 wbs_adr_i[18]
*460 wbs_adr_i[19]
*461 wbs_adr_i[1]
*462 wbs_adr_i[20]
*463 wbs_adr_i[21]
*464 wbs_adr_i[22]
*465 wbs_adr_i[23]
*466 wbs_adr_i[24]
*467 wbs_adr_i[25]
*468 wbs_adr_i[26]
*469 wbs_adr_i[27]
*470 wbs_adr_i[28]
*471 wbs_adr_i[29]
*472 wbs_adr_i[2]
*473 wbs_adr_i[30]
*474 wbs_adr_i[31]
*475 wbs_adr_i[3]
*476 wbs_adr_i[4]
*477 wbs_adr_i[5]
*478 wbs_adr_i[6]
*479 wbs_adr_i[7]
*480 wbs_adr_i[8]
*481 wbs_adr_i[9]
*482 wbs_cyc_i
*483 wbs_dat_i[0]
*484 wbs_dat_i[10]
*485 wbs_dat_i[11]
*486 wbs_dat_i[12]
*487 wbs_dat_i[13]
*488 wbs_dat_i[14]
*489 wbs_dat_i[15]
*490 wbs_dat_i[16]
*491 wbs_dat_i[17]
*492 wbs_dat_i[18]
*493 wbs_dat_i[19]
*494 wbs_dat_i[1]
*495 wbs_dat_i[20]
*496 wbs_dat_i[21]
*497 wbs_dat_i[22]
*498 wbs_dat_i[23]
*499 wbs_dat_i[24]
*500 wbs_dat_i[25]
*501 wbs_dat_i[26]
*502 wbs_dat_i[27]
*503 wbs_dat_i[28]
*504 wbs_dat_i[29]
*505 wbs_dat_i[2]
*506 wbs_dat_i[30]
*507 wbs_dat_i[31]
*508 wbs_dat_i[3]
*509 wbs_dat_i[4]
*510 wbs_dat_i[5]
*511 wbs_dat_i[6]
*512 wbs_dat_i[7]
*513 wbs_dat_i[8]
*514 wbs_dat_i[9]
*515 wbs_dat_o[0]
*516 wbs_dat_o[10]
*517 wbs_dat_o[11]
*518 wbs_dat_o[12]
*519 wbs_dat_o[13]
*520 wbs_dat_o[14]
*521 wbs_dat_o[15]
*522 wbs_dat_o[16]
*523 wbs_dat_o[17]
*524 wbs_dat_o[18]
*525 wbs_dat_o[19]
*526 wbs_dat_o[1]
*527 wbs_dat_o[20]
*528 wbs_dat_o[21]
*529 wbs_dat_o[22]
*530 wbs_dat_o[23]
*531 wbs_dat_o[24]
*532 wbs_dat_o[25]
*533 wbs_dat_o[26]
*534 wbs_dat_o[27]
*535 wbs_dat_o[28]
*536 wbs_dat_o[29]
*537 wbs_dat_o[2]
*538 wbs_dat_o[30]
*539 wbs_dat_o[31]
*540 wbs_dat_o[3]
*541 wbs_dat_o[4]
*542 wbs_dat_o[5]
*543 wbs_dat_o[6]
*544 wbs_dat_o[7]
*545 wbs_dat_o[8]
*546 wbs_dat_o[9]
*547 wbs_stb_i
*548 wbs_we_i
*549 _0000_
*550 _0001_
*551 _0002_
*552 _0003_
*553 _0004_
*554 _0005_
*555 _0006_
*556 _0007_
*557 _0008_
*558 _0009_
*559 _0010_
*560 _0011_
*561 _0012_
*562 _0013_
*563 _0014_
*564 _0015_
*565 _0016_
*566 _0017_
*567 _0018_
*568 _0019_
*569 _0020_
*570 _0021_
*571 _0022_
*572 _0023_
*573 _0024_
*574 _0025_
*575 _0026_
*576 _0027_
*577 _0028_
*578 _0029_
*579 _0030_
*580 _0031_
*581 _0032_
*582 _0033_
*583 _0034_
*584 _0035_
*585 _0036_
*586 _0037_
*587 _0038_
*588 _0039_
*589 _0040_
*590 _0041_
*591 _0042_
*592 _0043_
*593 _0044_
*594 _0045_
*595 _0046_
*596 _0047_
*597 _0048_
*598 _0049_
*599 _0050_
*600 _0051_
*601 _0052_
*602 _0053_
*603 _0054_
*604 _0055_
*605 _0056_
*606 _0057_
*607 _0058_
*608 _0059_
*609 _0060_
*610 _0061_
*611 _0062_
*612 _0063_
*613 _0064_
*614 _0065_
*615 _0066_
*616 _0067_
*617 _0068_
*618 _0069_
*619 _0070_
*620 _0071_
*621 _0072_
*622 _0073_
*623 _0074_
*624 _0075_
*625 _0076_
*626 _0077_
*627 _0078_
*628 _0079_
*629 _0080_
*630 _0081_
*631 _0082_
*632 _0083_
*633 _0084_
*634 _0085_
*635 _0086_
*636 _0087_
*637 _0088_
*638 _0089_
*639 _0090_
*640 _0091_
*641 _0092_
*642 _0093_
*643 _0094_
*644 _0095_
*645 _0096_
*646 _0097_
*647 _0098_
*648 _0099_
*649 _0100_
*650 _0101_
*651 _0102_
*652 _0103_
*653 _0104_
*654 _0105_
*655 _0106_
*656 _0107_
*657 _0108_
*658 _0109_
*659 _0110_
*660 _0111_
*661 _0112_
*662 _0113_
*663 _0114_
*664 _0115_
*665 _0116_
*666 _0117_
*667 _0118_
*668 _0119_
*669 _0120_
*670 _0121_
*671 _0122_
*672 _0123_
*673 _0124_
*674 _0125_
*675 _0126_
*676 _0127_
*677 _0128_
*678 _0129_
*679 _0130_
*680 _0131_
*681 _0132_
*682 _0133_
*683 _0134_
*684 _0135_
*685 _0136_
*686 _0137_
*687 _0138_
*688 _0139_
*689 _0140_
*690 _0141_
*691 _0142_
*692 _0143_
*693 _0144_
*694 _0145_
*695 _0146_
*696 _0147_
*697 _0148_
*698 _0149_
*699 _0150_
*700 _0151_
*701 _0152_
*702 _0153_
*703 _0154_
*704 _0155_
*705 _0156_
*706 _0157_
*707 _0158_
*708 _0159_
*709 _0160_
*710 _0161_
*711 _0162_
*712 _0163_
*713 _0164_
*714 _0165_
*715 _0166_
*716 _0167_
*717 _0168_
*718 _0169_
*719 _0170_
*720 _0171_
*721 _0172_
*722 _0173_
*723 _0174_
*724 _0175_
*725 _0176_
*726 _0177_
*727 _0178_
*728 _0179_
*729 _0180_
*730 _0181_
*731 _0182_
*732 _0183_
*733 _0184_
*734 _0185_
*735 _0186_
*736 _0187_
*737 _0188_
*738 _0189_
*739 _0190_
*740 _0191_
*741 _0192_
*742 _0193_
*743 _0194_
*744 _0195_
*745 _0196_
*746 _0197_
*747 _0198_
*748 _0199_
*749 _0200_
*750 _0201_
*751 _0202_
*752 _0203_
*753 _0204_
*754 _0205_
*755 _0206_
*756 _0207_
*757 _0208_
*758 _0209_
*759 _0210_
*760 _0211_
*761 _0212_
*762 _0213_
*763 _0214_
*764 _0215_
*765 _0216_
*766 _0217_
*767 _0218_
*768 _0219_
*769 _0220_
*770 _0221_
*771 _0222_
*772 _0223_
*773 _0224_
*774 _0225_
*775 _0226_
*776 _0227_
*777 _0228_
*778 _0229_
*779 _0230_
*780 _0231_
*781 _0232_
*782 _0233_
*783 _0234_
*784 _0235_
*785 _0236_
*786 _0237_
*787 _0238_
*788 _0239_
*789 _0240_
*790 _0241_
*791 _0242_
*792 _0243_
*793 _0244_
*794 _0245_
*795 _0246_
*796 _0247_
*797 _0248_
*798 _0249_
*799 _0250_
*800 _0251_
*801 _0252_
*802 _0253_
*803 _0254_
*804 _0255_
*805 _0256_
*806 _0257_
*807 _0258_
*808 _0259_
*809 _0260_
*810 _0261_
*811 _0262_
*812 _0263_
*813 _0264_
*814 _0265_
*815 _0266_
*816 _0267_
*817 _0268_
*818 _0269_
*819 _0270_
*820 _0271_
*821 _0272_
*822 _0273_
*823 _0274_
*824 _0275_
*825 _0276_
*826 _0277_
*827 _0278_
*828 _0279_
*829 _0280_
*830 _0281_
*831 _0282_
*832 _0283_
*833 _0284_
*834 _0285_
*835 _0286_
*836 _0287_
*837 _0288_
*838 _0289_
*839 _0290_
*840 _0291_
*841 _0292_
*842 _0293_
*843 _0294_
*844 _0295_
*845 _0296_
*846 _0297_
*847 _0298_
*848 _0299_
*849 _0300_
*850 _0301_
*851 _0302_
*852 _0303_
*853 _0304_
*854 _0305_
*855 _0306_
*856 _0307_
*857 _0308_
*858 _0309_
*859 _0310_
*860 _0311_
*861 _0312_
*862 _0313_
*863 _0314_
*864 _0315_
*865 _0316_
*866 _0317_
*867 _0318_
*868 _0319_
*869 _0320_
*870 _0321_
*871 _0322_
*872 _0323_
*873 _0324_
*874 _0325_
*875 _0326_
*876 _0327_
*877 _0328_
*878 _0329_
*879 _0330_
*880 _0331_
*881 _0332_
*882 _0333_
*883 _0334_
*884 _0335_
*885 _0336_
*886 _0337_
*887 _0338_
*888 _0339_
*889 _0340_
*890 _0341_
*891 _0342_
*892 _0343_
*893 _0344_
*894 _0345_
*895 _0346_
*896 _0347_
*897 _0348_
*898 _0349_
*899 _0350_
*900 _0351_
*901 _0352_
*902 _0353_
*903 _0354_
*904 _0355_
*905 _0356_
*906 _0357_
*907 _0358_
*908 _0359_
*909 _0360_
*910 _0361_
*911 _0362_
*912 _0363_
*913 _0364_
*914 _0365_
*915 _0366_
*916 _0367_
*917 _0368_
*918 _0369_
*919 _0370_
*920 _0371_
*921 _0372_
*922 _0373_
*923 _0374_
*924 _0375_
*925 _0376_
*926 _0377_
*927 _0378_
*928 _0379_
*929 _0380_
*930 _0381_
*931 _0382_
*932 _0383_
*933 _0384_
*934 _0385_
*935 _0386_
*936 _0387_
*937 _0388_
*938 _0389_
*939 _0390_
*940 _0391_
*941 _0392_
*942 _0393_
*943 _0394_
*944 _0395_
*945 _0396_
*946 _0397_
*947 _0398_
*948 _0399_
*949 _0400_
*950 _0401_
*951 _0402_
*952 _0403_
*953 _0404_
*954 _0405_
*955 _0406_
*956 _0407_
*957 _0408_
*958 _0409_
*959 _0410_
*960 _0411_
*961 _0412_
*962 _0413_
*963 _0414_
*964 _0415_
*965 _0416_
*966 _0417_
*967 _0418_
*968 _0419_
*969 _0420_
*970 _0421_
*971 _0422_
*972 _0423_
*973 _0424_
*974 _0425_
*975 _0426_
*976 _0427_
*977 _0428_
*978 _0429_
*979 _0430_
*980 _0431_
*981 _0432_
*982 _0433_
*983 _0434_
*984 _0435_
*985 _0436_
*986 _0437_
*987 _0438_
*988 clknet_0_wb_clk_i
*989 clknet_4_0_0_wb_clk_i
*990 clknet_4_10_0_wb_clk_i
*991 clknet_4_11_0_wb_clk_i
*992 clknet_4_12_0_wb_clk_i
*993 clknet_4_13_0_wb_clk_i
*994 clknet_4_14_0_wb_clk_i
*995 clknet_4_15_0_wb_clk_i
*996 clknet_4_1_0_wb_clk_i
*997 clknet_4_2_0_wb_clk_i
*998 clknet_4_3_0_wb_clk_i
*999 clknet_4_4_0_wb_clk_i
*1000 clknet_4_5_0_wb_clk_i
*1001 clknet_4_6_0_wb_clk_i
*1002 clknet_4_7_0_wb_clk_i
*1003 clknet_4_8_0_wb_clk_i
*1004 clknet_4_9_0_wb_clk_i
*1005 design_select\[0\]
*1006 design_select\[1\]
*1007 design_select\[2\]
*1008 design_select\[3\]
*1009 net1
*1010 net10
*1011 net100
*1012 net1000
*1013 net1001
*1014 net1002
*1015 net1003
*1016 net1004
*1017 net1005
*1018 net1006
*1019 net1007
*1020 net1008
*1021 net1009
*1022 net101
*1023 net1010
*1024 net1011
*1025 net1012
*1026 net1013
*1027 net1014
*1028 net1015
*1029 net1016
*1030 net1017
*1031 net1018
*1032 net1019
*1033 net102
*1034 net1020
*1035 net1021
*1036 net1022
*1037 net1023
*1038 net1024
*1039 net1025
*1040 net1026
*1041 net1027
*1042 net1028
*1043 net1029
*1044 net103
*1045 net1030
*1046 net1031
*1047 net1032
*1048 net1033
*1049 net1034
*1050 net1035
*1051 net1036
*1052 net1037
*1053 net1038
*1054 net1039
*1055 net104
*1056 net1040
*1057 net1041
*1058 net1042
*1059 net1043
*1060 net1044
*1061 net1045
*1062 net1046
*1063 net1047
*1064 net1048
*1065 net1049
*1066 net105
*1067 net1050
*1068 net1051
*1069 net1052
*1070 net1053
*1071 net1054
*1072 net1055
*1073 net1056
*1074 net1057
*1075 net1058
*1076 net1059
*1077 net106
*1078 net1060
*1079 net1061
*1080 net1062
*1081 net1063
*1082 net1064
*1083 net1065
*1084 net1066
*1085 net1067
*1086 net1068
*1087 net1069
*1088 net107
*1089 net1070
*1090 net1071
*1091 net1072
*1092 net1073
*1093 net1074
*1094 net1075
*1095 net1076
*1096 net1077
*1097 net1078
*1098 net1079
*1099 net108
*1100 net1080
*1101 net1081
*1102 net1082
*1103 net1083
*1104 net1084
*1105 net1085
*1106 net1086
*1107 net1087
*1108 net1088
*1109 net1089
*1110 net109
*1111 net1090
*1112 net1091
*1113 net1092
*1114 net1093
*1115 net1094
*1116 net1095
*1117 net1096
*1118 net1097
*1119 net1098
*1120 net1099
*1121 net11
*1122 net110
*1123 net1100
*1124 net1101
*1125 net1102
*1126 net1103
*1127 net1104
*1128 net1105
*1129 net1106
*1130 net1107
*1131 net1108
*1132 net1109
*1133 net111
*1134 net1110
*1135 net1111
*1136 net1112
*1137 net1113
*1138 net1114
*1139 net1115
*1140 net1116
*1141 net1117
*1142 net1118
*1143 net1119
*1144 net112
*1145 net1120
*1146 net1121
*1147 net1122
*1148 net1123
*1149 net1124
*1150 net1125
*1151 net1126
*1152 net1127
*1153 net1128
*1154 net1129
*1155 net113
*1156 net1130
*1157 net1131
*1158 net1132
*1159 net1133
*1160 net1134
*1161 net1135
*1162 net1136
*1163 net1137
*1164 net1138
*1165 net1139
*1166 net114
*1167 net1140
*1168 net1141
*1169 net1142
*1170 net1143
*1171 net1144
*1172 net1145
*1173 net1146
*1174 net1147
*1175 net1148
*1176 net1149
*1177 net115
*1178 net1150
*1179 net1151
*1180 net1152
*1181 net1153
*1182 net1154
*1183 net1155
*1184 net1156
*1185 net1157
*1186 net1158
*1187 net1159
*1188 net116
*1189 net1160
*1190 net1161
*1191 net1162
*1192 net1163
*1193 net1164
*1194 net1165
*1195 net1166
*1196 net1167
*1197 net1168
*1198 net1169
*1199 net117
*1200 net1170
*1201 net1171
*1202 net1172
*1203 net1173
*1204 net1174
*1205 net1175
*1206 net1176
*1207 net1177
*1208 net1178
*1209 net1179
*1210 net118
*1211 net1180
*1212 net1181
*1213 net1182
*1214 net1183
*1215 net1184
*1216 net1185
*1217 net1186
*1218 net1187
*1219 net1188
*1220 net1189
*1221 net119
*1222 net1190
*1223 net1191
*1224 net1192
*1225 net1193
*1226 net1194
*1227 net1195
*1228 net1196
*1229 net1197
*1230 net1198
*1231 net1199
*1232 net12
*1233 net120
*1234 net1200
*1235 net1201
*1236 net1202
*1237 net1203
*1238 net1204
*1239 net1205
*1240 net1206
*1241 net1207
*1242 net1208
*1243 net1209
*1244 net121
*1245 net1210
*1246 net1211
*1247 net1212
*1248 net1213
*1249 net1214
*1250 net1215
*1251 net1216
*1252 net1217
*1253 net1218
*1254 net1219
*1255 net122
*1256 net1220
*1257 net1221
*1258 net1222
*1259 net1223
*1260 net1224
*1261 net1225
*1262 net1226
*1263 net1227
*1264 net1228
*1265 net1229
*1266 net123
*1267 net1230
*1268 net1231
*1269 net1232
*1270 net1233
*1271 net1234
*1272 net1235
*1273 net1236
*1274 net1237
*1275 net1238
*1276 net1239
*1277 net124
*1278 net1240
*1279 net1241
*1280 net1242
*1281 net1243
*1282 net1244
*1283 net1245
*1284 net1246
*1285 net1247
*1286 net1248
*1287 net1249
*1288 net125
*1289 net1250
*1290 net1251
*1291 net1252
*1292 net1253
*1293 net1254
*1294 net1255
*1295 net1256
*1296 net1257
*1297 net1258
*1298 net1259
*1299 net126
*1300 net1260
*1301 net1261
*1302 net1262
*1303 net1263
*1304 net1264
*1305 net1265
*1306 net1266
*1307 net1267
*1308 net1268
*1309 net1269
*1310 net127
*1311 net1270
*1312 net1271
*1313 net1272
*1314 net1273
*1315 net1274
*1316 net1275
*1317 net1276
*1318 net1277
*1319 net1278
*1320 net1279
*1321 net128
*1322 net1280
*1323 net1281
*1324 net1282
*1325 net1283
*1326 net1284
*1327 net1285
*1328 net1286
*1329 net1287
*1330 net1288
*1331 net1289
*1332 net129
*1333 net1290
*1334 net1291
*1335 net1292
*1336 net1293
*1337 net1294
*1338 net1295
*1339 net1296
*1340 net1297
*1341 net1298
*1342 net1299
*1343 net13
*1344 net130
*1345 net1300
*1346 net1301
*1347 net1302
*1348 net1303
*1349 net1304
*1350 net1305
*1351 net1306
*1352 net1307
*1353 net1308
*1354 net1309
*1355 net131
*1356 net1310
*1357 net1311
*1358 net1312
*1359 net1313
*1360 net1314
*1361 net1315
*1362 net1316
*1363 net1317
*1364 net1318
*1365 net1319
*1366 net132
*1367 net1320
*1368 net1321
*1369 net1322
*1370 net1323
*1371 net1324
*1372 net1325
*1373 net1326
*1374 net1327
*1375 net1328
*1376 net1329
*1377 net133
*1378 net1330
*1379 net1331
*1380 net1332
*1381 net1333
*1382 net1334
*1383 net1335
*1384 net1336
*1385 net1337
*1386 net1338
*1387 net1339
*1388 net134
*1389 net1340
*1390 net1341
*1391 net1342
*1392 net1343
*1393 net1344
*1394 net1345
*1395 net1346
*1396 net1347
*1397 net1348
*1398 net1349
*1399 net135
*1400 net1350
*1401 net1351
*1402 net1352
*1403 net1353
*1404 net1354
*1405 net1355
*1406 net1356
*1407 net1357
*1408 net1358
*1409 net1359
*1410 net136
*1411 net1360
*1412 net1361
*1413 net1362
*1414 net1363
*1415 net1364
*1416 net1365
*1417 net1366
*1418 net1367
*1419 net1368
*1420 net1369
*1421 net137
*1422 net1370
*1423 net1371
*1424 net1372
*1425 net1373
*1426 net1374
*1427 net1375
*1428 net1376
*1429 net1377
*1430 net1378
*1431 net1379
*1432 net138
*1433 net139
*1434 net14
*1435 net140
*1436 net141
*1437 net142
*1438 net143
*1439 net144
*1440 net145
*1441 net146
*1442 net147
*1443 net148
*1444 net149
*1445 net15
*1446 net150
*1447 net151
*1448 net152
*1449 net153
*1450 net154
*1451 net155
*1452 net156
*1453 net157
*1454 net158
*1455 net159
*1456 net16
*1457 net160
*1458 net161
*1459 net162
*1460 net163
*1461 net164
*1462 net165
*1463 net166
*1464 net167
*1465 net168
*1466 net169
*1467 net17
*1468 net170
*1469 net171
*1470 net172
*1471 net173
*1472 net174
*1473 net175
*1474 net176
*1475 net177
*1476 net178
*1477 net179
*1478 net18
*1479 net180
*1480 net181
*1481 net182
*1482 net183
*1483 net184
*1484 net185
*1485 net186
*1486 net187
*1487 net188
*1488 net189
*1489 net19
*1490 net190
*1491 net191
*1492 net192
*1493 net193
*1494 net194
*1495 net195
*1496 net196
*1497 net197
*1498 net198
*1499 net199
*1500 net2
*1501 net20
*1502 net200
*1503 net201
*1504 net202
*1505 net203
*1506 net204
*1507 net205
*1508 net206
*1509 net207
*1510 net208
*1511 net209
*1512 net21
*1513 net210
*1514 net211
*1515 net212
*1516 net213
*1517 net214
*1518 net215
*1519 net216
*1520 net217
*1521 net218
*1522 net219
*1523 net22
*1524 net220
*1525 net221
*1526 net222
*1527 net223
*1528 net224
*1529 net225
*1530 net226
*1531 net227
*1532 net228
*1533 net229
*1534 net23
*1535 net230
*1536 net231
*1537 net232
*1538 net233
*1539 net234
*1540 net235
*1541 net236
*1542 net237
*1543 net238
*1544 net239
*1545 net24
*1546 net240
*1547 net241
*1548 net242
*1549 net243
*1550 net244
*1551 net245
*1552 net246
*1553 net247
*1554 net248
*1555 net249
*1556 net25
*1557 net250
*1558 net251
*1559 net252
*1560 net253
*1561 net254
*1562 net255
*1563 net256
*1564 net257
*1565 net258
*1566 net259
*1567 net26
*1568 net260
*1569 net261
*1570 net262
*1571 net263
*1572 net264
*1573 net265
*1574 net266
*1575 net267
*1576 net268
*1577 net269
*1578 net27
*1579 net270
*1580 net271
*1581 net272
*1582 net273
*1583 net274
*1584 net275
*1585 net276
*1586 net277
*1587 net278
*1588 net279
*1589 net28
*1590 net280
*1591 net281
*1592 net282
*1593 net283
*1594 net284
*1595 net285
*1596 net286
*1597 net287
*1598 net288
*1599 net289
*1600 net29
*1601 net290
*1602 net291
*1603 net292
*1604 net293
*1605 net294
*1606 net295
*1607 net296
*1608 net297
*1609 net298
*1610 net299
*1611 net3
*1612 net30
*1613 net300
*1614 net301
*1615 net302
*1616 net303
*1617 net304
*1618 net305
*1619 net306
*1620 net307
*1621 net308
*1622 net309
*1623 net31
*1624 net310
*1625 net311
*1626 net312
*1627 net313
*1628 net314
*1629 net315
*1630 net316
*1631 net317
*1632 net318
*1633 net319
*1634 net32
*1635 net320
*1636 net321
*1637 net322
*1638 net323
*1639 net324
*1640 net325
*1641 net326
*1642 net327
*1643 net328
*1644 net329
*1645 net33
*1646 net330
*1647 net331
*1648 net332
*1649 net333
*1650 net334
*1651 net335
*1652 net336
*1653 net337
*1654 net338
*1655 net339
*1656 net34
*1657 net340
*1658 net341
*1659 net342
*1660 net343
*1661 net344
*1662 net345
*1663 net346
*1664 net347
*1665 net348
*1666 net349
*1667 net35
*1668 net350
*1669 net351
*1670 net352
*1671 net353
*1672 net354
*1673 net355
*1674 net356
*1675 net357
*1676 net358
*1677 net359
*1678 net36
*1679 net360
*1680 net361
*1681 net362
*1682 net363
*1683 net364
*1684 net365
*1685 net366
*1686 net367
*1687 net368
*1688 net369
*1689 net37
*1690 net370
*1691 net371
*1692 net372
*1693 net373
*1694 net374
*1695 net375
*1696 net376
*1697 net377
*1698 net378
*1699 net379
*1700 net38
*1701 net380
*1702 net381
*1703 net382
*1704 net383
*1705 net384
*1706 net385
*1707 net386
*1708 net387
*1709 net388
*1710 net389
*1711 net39
*1712 net390
*1713 net391
*1714 net392
*1715 net393
*1716 net394
*1717 net395
*1718 net396
*1719 net397
*1720 net398
*1721 net399
*1722 net4
*1723 net40
*1724 net400
*1725 net401
*1726 net402
*1727 net403
*1728 net404
*1729 net405
*1730 net406
*1731 net407
*1732 net408
*1733 net409
*1734 net41
*1735 net410
*1736 net411
*1737 net412
*1738 net413
*1739 net414
*1740 net415
*1741 net416
*1742 net417
*1743 net418
*1744 net419
*1745 net42
*1746 net420
*1747 net421
*1748 net422
*1749 net423
*1750 net424
*1751 net425
*1752 net426
*1753 net427
*1754 net428
*1755 net429
*1756 net43
*1757 net430
*1758 net431
*1759 net432
*1760 net433
*1761 net434
*1762 net435
*1763 net436
*1764 net437
*1765 net438
*1766 net439
*1767 net44
*1768 net440
*1769 net441
*1770 net442
*1771 net443
*1772 net444
*1773 net445
*1774 net446
*1775 net447
*1776 net448
*1777 net449
*1778 net45
*1779 net450
*1780 net451
*1781 net452
*1782 net453
*1783 net454
*1784 net455
*1785 net456
*1786 net457
*1787 net458
*1788 net459
*1789 net46
*1790 net460
*1791 net461
*1792 net462
*1793 net463
*1794 net464
*1795 net465
*1796 net466
*1797 net467
*1798 net468
*1799 net469
*1800 net47
*1801 net470
*1802 net471
*1803 net472
*1804 net473
*1805 net474
*1806 net475
*1807 net476
*1808 net477
*1809 net478
*1810 net479
*1811 net48
*1812 net480
*1813 net481
*1814 net482
*1815 net483
*1816 net484
*1817 net485
*1818 net486
*1819 net487
*1820 net488
*1821 net489
*1822 net49
*1823 net490
*1824 net491
*1825 net492
*1826 net493
*1827 net494
*1828 net495
*1829 net496
*1830 net497
*1831 net498
*1832 net499
*1833 net5
*1834 net50
*1835 net500
*1836 net501
*1837 net502
*1838 net503
*1839 net504
*1840 net505
*1841 net506
*1842 net507
*1843 net508
*1844 net509
*1845 net51
*1846 net510
*1847 net511
*1848 net512
*1849 net513
*1850 net514
*1851 net515
*1852 net516
*1853 net517
*1854 net518
*1855 net519
*1856 net52
*1857 net520
*1858 net521
*1859 net522
*1860 net523
*1861 net524
*1862 net525
*1863 net526
*1864 net527
*1865 net528
*1866 net529
*1867 net53
*1868 net530
*1869 net531
*1870 net532
*1871 net533
*1872 net534
*1873 net535
*1874 net536
*1875 net537
*1876 net538
*1877 net539
*1878 net54
*1879 net540
*1880 net541
*1881 net542
*1882 net543
*1883 net544
*1884 net545
*1885 net546
*1886 net547
*1887 net548
*1888 net549
*1889 net55
*1890 net550
*1891 net551
*1892 net552
*1893 net553
*1894 net554
*1895 net555
*1896 net556
*1897 net557
*1898 net558
*1899 net56
*1900 net564
*1901 net565
*1902 net566
*1903 net567
*1904 net568
*1905 net569
*1906 net57
*1907 net570
*1908 net571
*1909 net572
*1910 net573
*1911 net574
*1912 net575
*1913 net576
*1914 net577
*1915 net578
*1916 net579
*1917 net58
*1918 net580
*1919 net581
*1920 net582
*1921 net583
*1922 net584
*1923 net585
*1924 net586
*1925 net587
*1926 net588
*1927 net589
*1928 net59
*1929 net590
*1930 net591
*1931 net592
*1932 net593
*1933 net594
*1934 net595
*1935 net596
*1936 net597
*1937 net598
*1938 net599
*1939 net6
*1940 net60
*1941 net600
*1942 net601
*1943 net602
*1944 net603
*1945 net604
*1946 net605
*1947 net606
*1948 net607
*1949 net608
*1950 net609
*1951 net61
*1952 net610
*1953 net611
*1954 net612
*1955 net613
*1956 net614
*1957 net615
*1958 net616
*1959 net617
*1960 net618
*1961 net619
*1962 net62
*1963 net620
*1964 net621
*1965 net622
*1966 net623
*1967 net624
*1968 net625
*1969 net626
*1970 net627
*1971 net628
*1972 net629
*1973 net63
*1974 net630
*1975 net631
*1976 net632
*1977 net633
*1978 net634