*SPEF "ieee 1481-1999"
*DESIGN "multiplexer"
*DATE "11:11:11 Fri 11 11, 1111"
*VENDOR "OpenRCX"
*PROGRAM "Parallel Extraction"
*VERSION "1.0"
*DESIGN_FLOW "NAME_SCOPE LOCAL" "PIN_CAP NONE"
*DIVIDER /
*DELIMITER :
*BUS_DELIMITER []
*T_UNIT 1 NS
*C_UNIT 1 PF
*R_UNIT 1 OHM
*L_UNIT 1 HENRY

*NAME_MAP
*1 custom_settings[0]
*2 custom_settings[10]
*3 custom_settings[11]
*4 custom_settings[12]
*5 custom_settings[13]
*6 custom_settings[14]
*7 custom_settings[15]
*8 custom_settings[16]
*9 custom_settings[17]
*10 custom_settings[18]
*11 custom_settings[19]
*12 custom_settings[1]
*13 custom_settings[20]
*14 custom_settings[21]
*15 custom_settings[22]
*16 custom_settings[23]
*17 custom_settings[24]
*18 custom_settings[25]
*19 custom_settings[26]
*20 custom_settings[27]
*21 custom_settings[28]
*22 custom_settings[29]
*23 custom_settings[2]
*24 custom_settings[30]
*25 custom_settings[31]
*26 custom_settings[3]
*27 custom_settings[4]
*28 custom_settings[5]
*29 custom_settings[6]
*30 custom_settings[7]
*31 custom_settings[8]
*32 custom_settings[9]
*33 io_in_0
*34 net482
*35 io_oeb[10]
*36 io_oeb[11]
*37 io_oeb[12]
*38 io_oeb[13]
*39 io_oeb[14]
*40 io_oeb[15]
*41 io_oeb[16]
*42 io_oeb[17]
*43 io_oeb[18]
*44 io_oeb[19]
*45 io_oeb[1]
*46 io_oeb[20]
*47 io_oeb[21]
*48 io_oeb[22]
*49 io_oeb[23]
*50 io_oeb[24]
*51 io_oeb[25]
*52 io_oeb[26]
*53 io_oeb[27]
*54 io_oeb[28]
*55 io_oeb[29]
*56 io_oeb[2]
*57 io_oeb[30]
*58 io_oeb[31]
*59 io_oeb[32]
*60 io_oeb[33]
*61 io_oeb[34]
*62 io_oeb[35]
*63 io_oeb[36]
*64 io_oeb[37]
*65 net479
*66 io_oeb[4]
*67 io_oeb[5]
*68 io_oeb[6]
*69 io_oeb[7]
*70 io_oeb[8]
*71 io_oeb[9]
*72 io_oeb_scrapcpu[0]
*73 io_oeb_scrapcpu[10]
*74 io_oeb_scrapcpu[11]
*75 io_oeb_scrapcpu[12]
*76 io_oeb_scrapcpu[13]
*77 io_oeb_scrapcpu[14]
*78 io_oeb_scrapcpu[15]
*79 io_oeb_scrapcpu[16]
*80 io_oeb_scrapcpu[17]
*81 io_oeb_scrapcpu[18]
*82 io_oeb_scrapcpu[19]
*83 io_oeb_scrapcpu[1]
*84 io_oeb_scrapcpu[20]
*85 io_oeb_scrapcpu[21]
*86 io_oeb_scrapcpu[22]
*87 io_oeb_scrapcpu[23]
*88 io_oeb_scrapcpu[24]
*89 io_oeb_scrapcpu[25]
*90 io_oeb_scrapcpu[26]
*91 io_oeb_scrapcpu[27]
*92 io_oeb_scrapcpu[28]
*93 io_oeb_scrapcpu[29]
*94 io_oeb_scrapcpu[2]
*95 io_oeb_scrapcpu[30]
*96 io_oeb_scrapcpu[31]
*97 io_oeb_scrapcpu[32]
*98 io_oeb_scrapcpu[33]
*99 io_oeb_scrapcpu[34]
*100 io_oeb_scrapcpu[35]
*101 io_oeb_scrapcpu[3]
*102 io_oeb_scrapcpu[4]
*103 io_oeb_scrapcpu[5]
*104 io_oeb_scrapcpu[6]
*105 io_oeb_scrapcpu[7]
*106 io_oeb_scrapcpu[8]
*107 io_oeb_scrapcpu[9]
*108 io_oeb_vliw[0]
*109 io_oeb_vliw[10]
*110 io_oeb_vliw[11]
*111 io_oeb_vliw[12]
*112 io_oeb_vliw[13]
*113 io_oeb_vliw[14]
*114 io_oeb_vliw[15]
*115 io_oeb_vliw[16]
*116 io_oeb_vliw[17]
*117 io_oeb_vliw[18]
*118 io_oeb_vliw[19]
*119 io_oeb_vliw[1]
*120 io_oeb_vliw[20]
*121 io_oeb_vliw[21]
*122 io_oeb_vliw[22]
*123 io_oeb_vliw[23]
*124 io_oeb_vliw[24]
*125 io_oeb_vliw[25]
*126 io_oeb_vliw[26]
*127 io_oeb_vliw[27]
*128 io_oeb_vliw[28]
*129 io_oeb_vliw[29]
*130 io_oeb_vliw[2]
*131 io_oeb_vliw[30]
*132 io_oeb_vliw[31]
*133 io_oeb_vliw[32]
*134 io_oeb_vliw[33]
*135 io_oeb_vliw[34]
*136 io_oeb_vliw[35]
*137 io_oeb_vliw[3]
*138 io_oeb_vliw[4]
*139 io_oeb_vliw[5]
*140 io_oeb_vliw[6]
*141 io_oeb_vliw[7]
*142 io_oeb_vliw[8]
*143 io_oeb_vliw[9]
*144 io_oeb_z80[0]
*145 io_oeb_z80[10]
*146 io_oeb_z80[11]
*147 io_oeb_z80[12]
*148 io_oeb_z80[13]
*149 io_oeb_z80[14]
*150 io_oeb_z80[15]
*151 io_oeb_z80[16]
*152 io_oeb_z80[17]
*153 io_oeb_z80[18]
*154 io_oeb_z80[19]
*155 io_oeb_z80[1]
*156 io_oeb_z80[20]
*157 io_oeb_z80[21]
*158 io_oeb_z80[22]
*159 io_oeb_z80[23]
*160 io_oeb_z80[24]
*161 io_oeb_z80[25]
*162 io_oeb_z80[26]
*163 io_oeb_z80[27]
*164 io_oeb_z80[28]
*165 io_oeb_z80[29]
*166 io_oeb_z80[2]
*167 io_oeb_z80[30]
*168 io_oeb_z80[31]
*169 io_oeb_z80[32]
*170 io_oeb_z80[33]
*171 io_oeb_z80[34]
*172 io_oeb_z80[35]
*173 io_oeb_z80[3]
*174 io_oeb_z80[4]
*175 io_oeb_z80[5]
*176 io_oeb_z80[6]
*177 io_oeb_z80[7]
*178 io_oeb_z80[8]
*179 io_oeb_z80[9]
*180 net480
*181 io_out[10]
*182 io_out[11]
*183 io_out[12]
*184 io_out[13]
*185 io_out[14]
*186 io_out[15]
*187 io_out[16]
*188 io_out[17]
*189 io_out[18]
*190 io_out[19]
*191 io_out[1]
*192 io_out[20]
*193 io_out[21]
*194 io_out[22]
*195 io_out[23]
*196 io_out[24]
*197 io_out[25]
*198 io_out[26]
*199 io_out[27]
*200 io_out[28]
*201 io_out[29]
*202 io_out[2]
*203 io_out[30]
*204 io_out[31]
*205 io_out[32]
*206 io_out[33]
*207 io_out[34]
*208 io_out[35]
*209 io_out[36]
*210 io_out[37]
*211 io_out[3]
*212 io_out[4]
*213 io_out[5]
*214 io_out[6]
*215 io_out[7]
*216 io_out[8]
*217 io_out[9]
*218 io_out_scrapcpu[0]
*219 io_out_scrapcpu[10]
*220 io_out_scrapcpu[11]
*221 io_out_scrapcpu[12]
*222 io_out_scrapcpu[13]
*223 io_out_scrapcpu[14]
*224 io_out_scrapcpu[15]
*225 io_out_scrapcpu[16]
*226 io_out_scrapcpu[17]
*227 io_out_scrapcpu[18]
*228 io_out_scrapcpu[19]
*229 io_out_scrapcpu[1]
*230 io_out_scrapcpu[20]
*231 io_out_scrapcpu[21]
*232 io_out_scrapcpu[22]
*233 io_out_scrapcpu[23]
*234 io_out_scrapcpu[24]
*235 io_out_scrapcpu[25]
*236 io_out_scrapcpu[26]
*237 io_out_scrapcpu[27]
*238 io_out_scrapcpu[28]
*239 io_out_scrapcpu[29]
*240 io_out_scrapcpu[2]
*241 io_out_scrapcpu[30]
*242 io_out_scrapcpu[31]
*243 io_out_scrapcpu[32]
*244 io_out_scrapcpu[33]
*245 io_out_scrapcpu[34]
*246 io_out_scrapcpu[35]
*247 io_out_scrapcpu[3]
*248 io_out_scrapcpu[4]
*249 io_out_scrapcpu[5]
*250 io_out_scrapcpu[6]
*251 io_out_scrapcpu[7]
*252 io_out_scrapcpu[8]
*253 io_out_scrapcpu[9]
*254 io_out_vliw[0]
*255 io_out_vliw[10]
*256 io_out_vliw[11]
*257 io_out_vliw[12]
*258 io_out_vliw[13]
*259 io_out_vliw[14]
*260 io_out_vliw[15]
*261 io_out_vliw[16]
*262 io_out_vliw[17]
*263 io_out_vliw[18]
*264 io_out_vliw[19]
*265 io_out_vliw[1]
*266 io_out_vliw[20]
*267 io_out_vliw[21]
*268 io_out_vliw[22]
*269 io_out_vliw[23]
*270 io_out_vliw[24]
*271 io_out_vliw[25]
*272 io_out_vliw[26]
*273 io_out_vliw[27]
*274 io_out_vliw[28]
*275 io_out_vliw[29]
*276 io_out_vliw[2]
*277 io_out_vliw[30]
*278 io_out_vliw[31]
*279 io_out_vliw[32]
*280 io_out_vliw[33]
*281 io_out_vliw[34]
*282 io_out_vliw[35]
*283 io_out_vliw[3]
*284 io_out_vliw[4]
*285 io_out_vliw[5]
*286 io_out_vliw[6]
*287 io_out_vliw[7]
*288 io_out_vliw[8]
*289 io_out_vliw[9]
*290 io_out_z80[0]
*291 io_out_z80[10]
*292 io_out_z80[11]
*293 io_out_z80[12]
*294 io_out_z80[13]
*295 io_out_z80[14]
*296 io_out_z80[15]
*297 io_out_z80[16]
*298 io_out_z80[17]
*299 io_out_z80[18]
*300 io_out_z80[19]
*301 io_out_z80[1]
*302 io_out_z80[20]
*303 io_out_z80[21]
*304 io_out_z80[22]
*305 io_out_z80[23]
*306 io_out_z80[24]
*307 io_out_z80[25]
*308 io_out_z80[26]
*309 io_out_z80[27]
*310 io_out_z80[28]
*311 io_out_z80[29]
*312 io_out_z80[2]
*313 io_out_z80[30]
*314 io_out_z80[31]
*315 io_out_z80[32]
*316 io_out_z80[33]
*317 io_out_z80[34]
*318 io_out_z80[35]
*319 io_out_z80[3]
*320 io_out_z80[4]
*321 io_out_z80[5]
*322 io_out_z80[6]
*323 io_out_z80[7]
*324 io_out_z80[8]
*325 io_out_z80[9]
*326 net483
*327 la_data_out[10]
*328 la_data_out[11]
*329 la_data_out[12]
*330 la_data_out[13]
*331 la_data_out[14]
*332 la_data_out[15]
*333 la_data_out[16]
*334 la_data_out[17]
*335 la_data_out[18]
*336 la_data_out[19]
*337 la_data_out[1]
*338 la_data_out[20]
*339 la_data_out[21]
*340 la_data_out[22]
*341 la_data_out[23]
*342 la_data_out[24]
*343 la_data_out[25]
*344 la_data_out[26]
*345 la_data_out[27]
*346 la_data_out[28]
*347 la_data_out[29]
*348 la_data_out[2]
*349 la_data_out[30]
*350 la_data_out[31]
*351 la_data_out[32]
*352 la_data_out[33]
*353 la_data_out[34]
*354 la_data_out[35]
*355 la_data_out[36]
*356 la_data_out[37]
*357 la_data_out[38]
*358 la_data_out[39]
*359 net481
*360 la_data_out[4]
*361 la_data_out[5]
*362 la_data_out[6]
*363 la_data_out[7]
*364 la_data_out[8]
*365 la_data_out[9]
*366 rst_scrapcpu
*367 rst_vliw
*368 rst_z80
*371 wb_clk_i
*372 wb_rst_i
*373 wbs_ack_o
*374 wbs_adr_i[0]
*375 wbs_adr_i[10]
*376 wbs_adr_i[11]
*377 wbs_adr_i[12]
*378 wbs_adr_i[13]
*379 wbs_adr_i[14]
*380 wbs_adr_i[15]
*381 wbs_adr_i[16]
*382 wbs_adr_i[17]
*383 wbs_adr_i[18]
*384 wbs_adr_i[19]
*385 wbs_adr_i[1]
*386 wbs_adr_i[20]
*387 wbs_adr_i[21]
*388 wbs_adr_i[22]
*389 wbs_adr_i[23]
*390 wbs_adr_i[24]
*391 wbs_adr_i[25]
*392 wbs_adr_i[26]
*393 wbs_adr_i[27]
*394 wbs_adr_i[28]
*395 wbs_adr_i[29]
*396 wbs_adr_i[2]
*397 wbs_adr_i[30]
*398 wbs_adr_i[31]
*399 wbs_adr_i[3]
*400 wbs_adr_i[4]
*401 wbs_adr_i[5]
*402 wbs_adr_i[6]
*403 wbs_adr_i[7]
*404 wbs_adr_i[8]
*405 wbs_adr_i[9]
*406 wbs_cyc_i
*407 wbs_dat_i[0]
*408 wbs_dat_i[10]
*409 wbs_dat_i[11]
*410 wbs_dat_i[12]
*411 wbs_dat_i[13]
*412 wbs_dat_i[14]
*413 wbs_dat_i[15]
*414 wbs_dat_i[16]
*415 wbs_dat_i[17]
*416 wbs_dat_i[18]
*417 wbs_dat_i[19]
*418 wbs_dat_i[1]
*419 wbs_dat_i[20]
*420 wbs_dat_i[21]
*421 wbs_dat_i[22]
*422 wbs_dat_i[23]
*423 wbs_dat_i[24]
*424 wbs_dat_i[25]
*425 wbs_dat_i[26]
*426 wbs_dat_i[27]
*427 wbs_dat_i[28]
*428 wbs_dat_i[29]
*429 wbs_dat_i[2]
*430 wbs_dat_i[30]
*431 wbs_dat_i[31]
*432 wbs_dat_i[3]
*433 wbs_dat_i[4]
*434 wbs_dat_i[5]
*435 wbs_dat_i[6]
*436 wbs_dat_i[7]
*437 wbs_dat_i[8]
*438 wbs_dat_i[9]
*439 wbs_dat_o[0]
*440 wbs_dat_o[10]
*441 wbs_dat_o[11]
*442 wbs_dat_o[12]
*443 wbs_dat_o[13]
*444 wbs_dat_o[14]
*445 wbs_dat_o[15]
*446 wbs_dat_o[16]
*447 wbs_dat_o[17]
*448 wbs_dat_o[18]
*449 wbs_dat_o[19]
*450 wbs_dat_o[1]
*451 wbs_dat_o[20]
*452 wbs_dat_o[21]
*453 wbs_dat_o[22]
*454 wbs_dat_o[23]
*455 wbs_dat_o[24]
*456 wbs_dat_o[25]
*457 wbs_dat_o[26]
*458 wbs_dat_o[27]
*459 wbs_dat_o[28]
*460 wbs_dat_o[29]
*461 wbs_dat_o[2]
*462 wbs_dat_o[30]
*463 wbs_dat_o[31]
*464 wbs_dat_o[3]
*465 wbs_dat_o[4]
*466 wbs_dat_o[5]
*467 wbs_dat_o[6]
*468 wbs_dat_o[7]
*469 wbs_dat_o[8]
*470 wbs_dat_o[9]
*471 wbs_stb_i
*472 wbs_we_i
*473 _0000_
*474 _0001_
*475 _0002_
*476 _0003_
*477 _0004_
*478 _0005_
*479 _0006_
*480 _0007_
*481 _0008_
*482 _0009_
*483 _0010_
*484 _0011_
*485 _0012_
*486 _0013_
*487 _0014_
*488 _0015_
*489 _0016_
*490 _0017_
*491 _0018_
*492 _0019_
*493 _0020_
*494 _0021_
*495 _0022_
*496 _0023_
*497 _0024_
*498 _0025_
*499 _0026_
*500 _0027_
*501 _0028_
*502 _0029_
*503 _0030_
*504 _0031_
*505 _0032_
*506 _0033_
*507 _0034_
*508 _0035_
*509 _0036_
*510 _0037_
*511 _0038_
*512 _0039_
*513 _0040_
*514 _0041_
*515 _0042_
*516 _0043_
*517 _0044_
*518 _0045_
*519 _0046_
*520 _0047_
*521 _0048_
*522 _0049_
*523 _0050_
*524 _0051_
*525 _0052_
*526 _0053_
*527 _0054_
*528 _0055_
*529 _0056_
*530 _0057_
*531 _0058_
*532 _0059_
*533 _0060_
*534 _0061_
*535 _0062_
*536 _0063_
*537 _0064_
*538 _0065_
*539 _0066_
*540 _0067_
*541 _0068_
*542 _0069_
*543 _0070_
*544 _0071_
*545 _0072_
*546 _0073_
*547 _0074_
*548 _0075_
*549 _0076_
*550 _0077_
*551 _0078_
*552 _0079_
*553 _0080_
*554 _0081_
*555 _0082_
*556 _0083_
*557 _0084_
*558 _0085_
*559 _0086_
*560 _0087_
*561 _0088_
*562 _0089_
*563 _0090_
*564 _0091_
*565 _0092_
*566 _0093_
*567 _0094_
*568 _0095_
*569 _0096_
*570 _0097_
*571 _0098_
*572 _0099_
*573 _0100_
*574 _0101_
*575 _0102_
*576 _0103_
*577 _0104_
*578 _0105_
*579 _0106_
*580 _0107_
*581 _0108_
*582 _0109_
*583 _0110_
*584 _0111_
*585 _0112_
*586 _0113_
*587 _0114_
*588 _0115_
*589 _0116_
*590 _0117_
*591 _0118_
*592 _0119_
*593 _0120_
*594 _0121_
*595 _0122_
*596 _0123_
*597 _0124_
*598 _0125_
*599 _0126_
*600 _0127_
*601 _0128_
*602 _0129_
*603 _0130_
*604 _0131_
*605 _0132_
*606 _0133_
*607 _0134_
*608 _0135_
*609 _0136_
*610 _0137_
*611 _0138_
*612 _0139_
*613 _0140_
*614 _0141_
*615 _0142_
*616 _0143_
*617 _0144_
*618 _0145_
*619 _0146_
*620 _0147_
*621 _0148_
*622 _0149_
*623 _0150_
*624 _0151_
*625 _0152_
*626 _0153_
*627 _0154_
*628 _0155_
*629 _0156_
*630 _0157_
*631 _0158_
*632 _0159_
*633 _0160_
*634 _0161_
*635 _0162_
*636 _0163_
*637 _0164_
*638 _0165_
*639 _0166_
*640 _0167_
*641 _0168_
*642 _0169_
*643 _0170_
*644 _0171_
*645 _0172_
*646 _0173_
*647 _0174_
*648 _0175_
*649 _0176_
*650 _0177_
*651 _0178_
*652 _0179_
*653 _0180_
*654 _0181_
*655 _0182_
*656 _0183_
*657 _0184_
*658 _0185_
*659 _0186_
*660 _0187_
*661 _0188_
*662 _0189_
*663 _0190_
*664 _0191_
*665 _0192_
*666 _0193_
*667 _0194_
*668 _0195_
*669 _0196_
*670 _0197_
*671 _0198_
*672 _0199_
*673 _0200_
*674 _0201_
*675 _0202_
*676 _0203_
*677 _0204_
*678 _0205_
*679 _0206_
*680 _0207_
*681 _0208_
*682 _0209_
*683 _0210_
*684 _0211_
*685 _0212_
*686 _0213_
*687 _0214_
*688 _0215_
*689 _0216_
*690 _0217_
*691 _0218_
*692 _0219_
*693 _0220_
*694 _0221_
*695 _0222_
*696 _0223_
*697 _0224_
*698 _0225_
*699 _0226_
*700 _0227_
*701 _0228_
*702 _0229_
*703 _0230_
*704 _0231_
*705 _0232_
*706 _0233_
*707 _0234_
*708 _0235_
*709 _0236_
*710 _0237_
*711 _0238_
*712 _0239_
*713 _0240_
*714 _0241_
*715 _0242_
*716 _0243_
*717 _0244_
*718 _0245_
*719 _0246_
*720 _0247_
*721 _0248_
*722 _0249_
*723 _0250_
*724 _0251_
*725 _0252_
*726 _0253_
*727 _0254_
*728 _0255_
*729 _0256_
*730 _0257_
*731 _0258_
*732 _0259_
*733 _0260_
*734 _0261_
*735 _0262_
*736 _0263_
*737 _0264_
*738 _0265_
*739 _0266_
*740 _0267_
*741 _0268_
*742 _0269_
*743 _0270_
*744 _0271_
*745 _0272_
*746 _0273_
*747 _0274_
*748 _0275_
*749 _0276_
*750 _0277_
*751 _0278_
*752 _0279_
*753 _0280_
*754 _0281_
*755 _0282_
*756 _0283_
*757 _0284_
*758 _0285_
*759 _0286_
*760 _0287_
*761 _0288_
*762 _0289_
*763 _0290_
*764 _0291_
*765 _0292_
*766 _0293_
*767 _0294_
*768 _0295_
*769 _0296_
*770 _0297_
*771 _0298_
*772 _0299_
*773 _0300_
*774 _0301_
*775 _0302_
*776 _0303_
*777 _0304_
*778 _0305_
*779 _0306_
*780 _0307_
*781 _0308_
*782 _0309_
*783 _0310_
*784 _0311_
*785 _0312_
*786 _0313_
*787 _0314_
*788 _0315_
*789 _0316_
*790 _0317_
*791 _0318_
*792 _0319_
*793 _0320_
*794 _0321_
*795 _0322_
*796 _0323_
*797 _0324_
*798 _0325_
*799 _0326_
*800 _0327_
*801 _0328_
*802 _0329_
*803 _0330_
*804 _0331_
*805 _0332_
*806 _0333_
*807 _0334_
*808 _0335_
*809 _0336_
*810 _0337_
*811 _0338_
*812 _0339_
*813 _0340_
*814 _0341_
*815 _0342_
*816 _0343_
*817 _0344_
*818 _0345_
*819 _0346_
*820 _0347_
*821 _0348_
*822 _0349_
*823 _0350_
*824 _0351_
*825 _0352_
*826 _0353_
*827 _0354_
*828 _0355_
*829 _0356_
*830 _0357_
*831 _0358_
*832 _0359_
*833 _0360_
*834 _0361_
*835 _0362_
*836 _0363_
*837 _0364_
*838 _0365_
*839 _0366_
*840 _0367_
*841 _0368_
*842 _0369_
*843 _0370_
*844 _0371_
*845 _0372_
*846 _0373_
*847 _0374_
*848 _0375_
*849 _0376_
*850 _0377_
*851 _0378_
*852 _0379_
*853 _0380_
*854 _0381_
*855 _0382_
*856 _0383_
*857 _0384_
*858 _0385_
*859 _0386_
*860 _0387_
*861 _0388_
*862 _0389_
*863 _0390_
*864 _0391_
*865 _0392_
*866 _0393_
*867 _0394_
*868 _0395_
*869 clknet_0_wb_clk_i
*870 clknet_4_0_0_wb_clk_i
*871 clknet_4_10_0_wb_clk_i
*872 clknet_4_11_0_wb_clk_i
*873 clknet_4_12_0_wb_clk_i
*874 clknet_4_13_0_wb_clk_i
*875 clknet_4_14_0_wb_clk_i
*876 clknet_4_15_0_wb_clk_i
*877 clknet_4_1_0_wb_clk_i
*878 clknet_4_2_0_wb_clk_i
*879 clknet_4_3_0_wb_clk_i
*880 clknet_4_4_0_wb_clk_i
*881 clknet_4_5_0_wb_clk_i
*882 clknet_4_6_0_wb_clk_i
*883 clknet_4_7_0_wb_clk_i
*884 clknet_4_8_0_wb_clk_i
*885 clknet_4_9_0_wb_clk_i
*886 design_select\[0\]
*887 design_select\[1\]
*888 design_select\[2\]
*889 design_select\[3\]
*890 net1
*891 net10
*892 net100
*893 net1000
*894 net1001
*895 net1002
*896 net1003
*897 net1004
*898 net1005
*899 net1006
*900 net1007
*901 net1008
*902 net1009
*903 net101
*904 net1010
*905 net1011
*906 net1012
*907 net1013
*908 net1014
*909 net1015
*910 net1016
*911 net1017
*912 net1018
*913 net1019
*914 net102
*915 net1020
*916 net1021
*917 net1022
*918 net1023
*919 net1024
*920 net1025
*921 net1026
*922 net1027
*923 net1028
*924 net1029
*925 net103
*926 net1030
*927 net1031
*928 net1032
*929 net1033
*930 net1034
*931 net1035
*932 net1036
*933 net1037
*934 net1038
*935 net1039
*936 net104
*937 net1040
*938 net1041
*939 net1042
*940 net1043
*941 net1044
*942 net1045
*943 net1046
*944 net1047
*945 net1048
*946 net1049
*947 net105
*948 net1050
*949 net1051
*950 net1052
*951 net1053
*952 net1054
*953 net1055
*954 net1056
*955 net1057
*956 net1058
*957 net1059
*958 net106
*959 net1060
*960 net1061
*961 net1062
*962 net1063
*963 net1064
*964 net1065
*965 net1066
*966 net1067
*967 net1068
*968 net1069
*969 net107
*970 net1070
*971 net1071
*972 net1072
*973 net1073
*974 net1074
*975 net1075
*976 net1076
*977 net1077
*978 net1078
*979 net1079
*980 net108
*981 net1080
*982 net1081
*983 net1082
*984 net1083
*985 net1084
*986 net1085
*987 net1086
*988 net1087
*989 net1088
*990 net1089
*991 net109
*992 net1090
*993 net1091
*994 net1092
*995 net1093
*996 net1094
*997 net1095
*998 net1096
*999 net1097
*1000 net1098
*1001 net1099
*1002 net11
*1003 net110
*1004 net1100
*1005 net1101
*1006 net1102
*1007 net1103
*1008 net1104
*1009 net1105
*1010 net1106
*1011 net1107
*1012 net1108
*1013 net1109
*1014 net111
*1015 net1110
*1016 net1111
*1017 net1112
*1018 net1113
*1019 net1114
*1020 net1115
*1021 net1116
*1022 net1117
*1023 net1118
*1024 net1119
*1025 net112
*1026 net1120
*1027 net1121
*1028 net1122
*1029 net1123
*1030 net1124
*1031 net1125
*1032 net1126
*1033 net1127
*1034 net1128
*1035 net1129
*1036 net113
*1037 net1130
*1038 net1131
*1039 net1132
*1040 net1133
*1041 net1134
*1042 net1135
*1043 net1136
*1044 net1137
*1045 net1138
*1046 net1139
*1047 net114
*1048 net1140
*1049 net1141
*1050 net1142
*1051 net1143
*1052 net1144
*1053 net1145
*1054 net1146
*1055 net1147
*1056 net1148
*1057 net1149
*1058 net115
*1059 net1150
*1060 net1151
*1061 net1152
*1062 net1153
*1063 net1154
*1064 net1155
*1065 net1156
*1066 net1157
*1067 net1158
*1068 net1159
*1069 net116
*1070 net1160
*1071 net1161
*1072 net1162
*1073 net1163
*1074 net1164
*1075 net1165
*1076 net1166
*1077 net1167
*1078 net1168
*1079 net1169
*1080 net117
*1081 net1170
*1082 net1171
*1083 net1172
*1084 net1173
*1085 net1174
*1086 net1175
*1087 net1176
*1088 net1177
*1089 net1178
*1090 net1179
*1091 net118
*1092 net1180
*1093 net1181
*1094 net1182
*1095 net1183
*1096 net1184
*1097 net1185
*1098 net1186
*1099 net1187
*1100 net1188
*1101 net1189
*1102 net119
*1103 net1190
*1104 net1191
*1105 net1192
*1106 net1193
*1107 net1194
*1108 net1195
*1109 net1196
*1110 net1197
*1111 net1198
*1112 net1199
*1113 net12
*1114 net120
*1115 net1200
*1116 net1201
*1117 net1202
*1118 net1203
*1119 net1204
*1120 net1205
*1121 net1206
*1122 net1207
*1123 net1208
*1124 net1209
*1125 net121
*1126 net1210
*1127 net1211
*1128 net1212
*1129 net1213
*1130 net1214
*1131 net1215
*1132 net1216
*1133 net1217
*1134 net1218
*1135 net1219
*1136 net122
*1137 net1220
*1138 net1221
*1139 net1222
*1140 net1223
*1141 net1224
*1142 net1225
*1143 net1226
*1144 net1227
*1145 net1228
*1146 net1229
*1147 net123
*1148 net1230
*1149 net1231
*1150 net1232
*1151 net1233
*1152 net1234
*1153 net1235
*1154 net1236
*1155 net1237
*1156 net1238
*1157 net1239
*1158 net124
*1159 net1240
*1160 net1241
*1161 net1242
*1162 net1243
*1163 net1244
*1164 net1245
*1165 net1246
*1166 net1247
*1167 net1248
*1168 net1249
*1169 net125
*1170 net1250
*1171 net1251
*1172 net1252
*1173 net1253
*1174 net1254
*1175 net1255
*1176 net1256
*1177 net1257
*1178 net1258
*1179 net1259
*1180 net126
*1181 net1260
*1182 net1261
*1183 net1262
*1184 net1263
*1185 net1264
*1186 net1265
*1187 net1266
*1188 net1267
*1189 net1268
*1190 net1269
*1191 net127
*1192 net1270
*1193 net1271
*1194 net1272
*1195 net1273
*1196 net1274
*1197 net1275
*1198 net1276
*1199 net1277
*1200 net1278
*1201 net1279
*1202 net128
*1203 net1280
*1204 net129
*1205 net13
*1206 net130
*1207 net131
*1208 net132
*1209 net133
*1210 net134
*1211 net135
*1212 net136
*1213 net137
*1214 net138
*1215 net139
*1216 net14
*1217 net140
*1218 net141
*1219 net142
*1220 net143
*1221 net144
*1222 net145
*1223 net146
*1224 net147
*1225 net148
*1226 net149
*1227 net15
*1228 net150
*1229 net151
*1230 net152
*1231 net153
*1232 net154
*1233 net155
*1234 net156
*1235 net157
*1236 net158
*1237 net159
*1238 net16
*1239 net160
*1240 net161
*1241 net162
*1242 net163
*1243 net164
*1244 net165
*1245 net166
*1246 net167
*1247 net168
*1248 net169
*1249 net17
*1250 net170
*1251 net171
*1252 net172
*1253 net173
*1254 net174
*1255 net175
*1256 net176
*1257 net177
*1258 net178
*1259 net179
*1260 net18
*1261 net180
*1262 net181
*1263 net182
*1264 net183
*1265 net184
*1266 net185
*1267 net186
*1268 net187
*1269 net188
*1270 net189
*1271 net19
*1272 net190
*1273 net191
*1274 net192
*1275 net193
*1276 net194
*1277 net195
*1278 net196
*1279 net197
*1280 net198
*1281 net199
*1282 net2
*1283 net20
*1284 net200
*1285 net201
*1286 net202
*1287 net203
*1288 net204
*1289 net205
*1290 net206
*1291 net207
*1292 net208
*1293 net209
*1294 net21
*1295 net210
*1296 net211
*1297 net212
*1298 net213
*1299 net214
*1300 net215
*1301 net216
*1302 net217
*1303 net218
*1304 net219
*1305 net22
*1306 net220
*1307 net221
*1308 net222
*1309 net223
*1310 net224
*1311 net225
*1312 net226
*1313 net227
*1314 net228
*1315 net229
*1316 net23
*1317 net230
*1318 net231
*1319 net232
*1320 net233
*1321 net234
*1322 net235
*1323 net236
*1324 net237
*1325 net238
*1326 net239
*1327 net24
*1328 net240
*1329 net241
*1330 net242
*1331 net243
*1332 net244
*1333 net245
*1334 net246
*1335 net247
*1336 net248
*1337 net249
*1338 net25
*1339 net250
*1340 net251
*1341 net252
*1342 net253
*1343 net254
*1344 net255
*1345 net256
*1346 net257
*1347 net258
*1348 net259
*1349 net26
*1350 net260
*1351 net261
*1352 net262
*1353 net263
*1354 net264
*1355 net265
*1356 net266
*1357 net267
*1358 net268
*1359 net269
*1360 net27
*1361 net270
*1362 net271
*1363 net272
*1364 net273
*1365 net274
*1366 net275
*1367 net276
*1368 net277
*1369 net278
*1370 net279
*1371 net28
*1372 net280
*1373 net281
*1374 net282
*1375 net283
*1376 net284
*1377 net285
*1378 net286
*1379 net287
*1380 net288
*1381 net289
*1382 net29
*1383 net290
*1384 net291
*1385 net292
*1386 net293
*1387 net294
*1388 net295
*1389 net296
*1390 net297
*1391 net298
*1392 net299
*1393 net3
*1394 net30
*1395 net300
*1396 net301
*1397 net302
*1398 net303
*1399 net304
*1400 net305
*1401 net306
*1402 net307
*1403 net308
*1404 net309
*1405 net31
*1406 net310
*1407 net311
*1408 net312
*1409 net313
*1410 net314
*1411 net315
*1412 net316
*1413 net317
*1414 net318
*1415 net319
*1416 net32
*1417 net320
*1418 net321
*1419 net322
*1420 net323
*1421 net324
*1422 net325
*1423 net326
*1424 net327
*1425 net328
*1426 net329
*1427 net33
*1428 net330
*1429 net331
*1430 net332
*1431 net333
*1432 net334
*1433 net335
*1434 net336
*1435 net337
*1436 net338
*1437 net339
*1438 net34
*1439 net340
*1440 net341
*1441 net342
*1442 net343
*1443 net344
*1444 net345
*1445 net346
*1446 net347
*1447 net348
*1448 net349
*1449 net35
*1450 net350
*1451 net351
*1452 net352
*1453 net353
*1454 net354
*1455 net355
*1456 net356
*1457 net357
*1458 net358
*1459 net359
*1460 net36
*1461 net360
*1462 net361
*1463 net362
*1464 net363
*1465 net364
*1466 net365
*1467 net366
*1468 net367
*1469 net368
*1470 net369
*1471 net37
*1472 net370
*1473 net371
*1474 net372
*1475 net373
*1476 net374
*1477 net375
*1478 net376
*1479 net377
*1480 net378
*1481 net379
*1482 net38
*1483 net380
*1484 net381
*1485 net382
*1486 net383
*1487 net384
*1488 net385
*1489 net386
*1490 net387
*1491 net388
*1492 net389
*1493 net39
*1494 net390
*1495 net391
*1496 net392
*1497 net393
*1498 net394
*1499 net395
*1500 net396
*1501 net397
*1502 net398
*1503 net399
*1504 net4
*1505 net40
*1506 net400
*1507 net401
*1508 net402
*1509 net403
*1510 net404
*1511 net405
*1512 net406
*1513 net407
*1514 net408
*1515 net409
*1516 net41
*1517 net410
*1518 net411
*1519 net412
*1520 net413
*1521 net414
*1522 net415
*1523 net416
*1524 net417
*1525 net418
*1526 net419
*1527 net42
*1528 net420
*1529 net421
*1530 net422
*1531 net423
*1532 net424
*1533 net425
*1534 net426
*1535 net427
*1536 net428
*1537 net429
*1538 net43
*1539 net430
*1540 net431
*1541 net432
*1542 net433
*1543 net434
*1544 net435
*1545 net436
*1546 net437
*1547 net438
*1548 net439
*1549 net44
*1550 net440
*1551 net441
*1552 net442
*1553 net443
*1554 net444
*1555 net445
*1556 net446
*1557 net447
*1558 net448
*1559 net449
*1560 net45
*1561 net450
*1562 net451
*1563 net452
*1564 net453
*1565 net454
*1566 net455
*1567 net456
*1568 net457
*1569 net458
*1570 net459
*1571 net46
*1572 net460
*1573 net461
*1574 net462
*1575 net463
*1576 net464
*1577 net465
*1578 net466
*1579 net467
*1580 net468
*1581 net469
*1582 net47
*1583 net470
*1584 net471
*1585 net472
*1586 net473
*1587 net474
*1588 net475
*1589 net476
*1590 net477
*1591 net478
*1592 net48
*1593 net484
*1594 net485
*1595 net486
*1596 net487
*1597 net488
*1598 net489
*1599 net49
*1600 net490
*1601 net491
*1602 net492
*1603 net493
*1604 net494
*1605 net495
*1606 net496
*1607 net497
*1608 net498
*1609 net499
*1610 net5
*1611 net50
*1612 net500
*1613 net501
*1614 net502
*1615 net503
*1616 net504
*1617 net505
*1618 net506
*1619 net507
*1620 net508
*1621 net509
*1622 net51
*1623 net510
*1624 net511
*1625 net512
*1626 net513
*1627 net514
*1628 net515
*1629 net516
*1630 net517
*1631 net518
*1632 net519
*1633 net52
*1634 net520
*1635 net521
*1636 net522
*1637 net523
*1638 net524
*1639 net525
*1640 net526
*1641 net527
*1642 net528
*1643 net529
*1644 net53
*1645 net530
*1646 net531
*1647 net532
*1648 net533
*1649 net534
*1650 net535
*1651 net536
*1652 net537
*1653 net538
*1654 net539
*1655 net54
*1656 net540
*1657 net541
*1658 net542
*1659 net543
*1660 net544
*1661 net545
*1662 net546
*1663 net547
*1664 net548
*1665 net549
*1666 net55
*1667 net550
*1668 net551
*1669 net552
*1670 net553
*1671 net554
*1672 net555
*1673 net556
*1674 net557
*1675 net558
*1676 net559
*1677 net56
*1678 net560
*1679 net561
*1680 net562
*1681 net563
*1682 net564
*1683 net565
*1684 net566
*1685 net567
*1686 net568
*1687 net569
*1688 net57
*1689 net570
*1690 net571
*1691 net572
*1692 net573
*1693 net574
*1694 net575
*1695 net576
*1696 net577
*1697 net578
*1698 net579
*1699 net58
*1700 net580
*1701 net581
*1702 net582
*1703 net583
*1704 net584
*1705 net585
*1706 net586
*1707 net587
*1708 net588
*1709 net589
*1710 net59
*1711 net590
*1712 net591
*1713 net592
*1714 net593
*1715 net594
*1716 net595
*1717 net596
*1718 net597
*1719 net598
*1720 net599
*1721 net6
*1722 net60
*1723 net600
*1724 net601
*1725 net602
*1726 net603
*1727 net604
*1728 net605
*1729 net606
*1730 net607
*1731 net608
*1732 net609
*1733 net61
*1734 net610
*1735 net611
*1736 net612
*1737 net613
*1738 net614
*1739 net615
*1740 net616
*1741 net617
*1742 net618
*1743 net619
*1744 net62
*1745 net620
*1746 net621
*1747 net622
*1748 net623
*1749 net624
*1750 net625
*1751 net626
*1752 net627
*1753 net628
*1754 net629
*1755 net63
*1756 net630
*1757 net631
*1758 net632
*1759 net633
*1760 net634
*1761 net635
*1762 net636
*1763 net637
*1764 net638
*1765 net639
*1766 net64
*1767 net640
*1768 net641
*1769 net642
*1770 net643
*1771 net644
*1772 net645
*1773 net646
*1774 net647
*1775 net648
*1776 net649
*1777 net65
*1778 net650
*1779 net651
*1780 net652
*1781 net653
*1782 net654
*1783 net655
*1784 net656
*1785 net657
*1786 net658
*1787 net659
*1788 net66
*1789 net660
*1790 net661
*1791 net662
*1792 net663
*1793 net664
*1794 net665
*1795 net666
*1796 net667
*1797 net668
*1798 net669
*1799 net67
*1800 net670
*1801 net671
*1802 net672
*1803 net673
*1804 net674
*1805 net675
*1806 net676
*1807 net677
*1808 net678
*1809 net679
*1810 net68
*1811 net680
*1812 net681
*1813 net682
*1814 net683
*1815 net684
*1816 net685
*1817 net686
*1818 net687
*1819 net688
*1820 net689
*1821 net69
*1822 net690
*1823 net691
*1824 net692
*1825 net693
*1826 net694
*1827 net695
*1828 net696
*1829 net697
*1830 net698
*1831 net699
*1832 net7
*1833 net70
*1834 net700
*1835 net701
*1836 net702
*1837 net703
*1838 net704
*1839 net705
*1840 net706
*1841 net707
*1842 net708
*1843 net709
*1844 net71
*1845 net710
*1846 net711
*1847 net712
*1848 net713
*1849 net714
*1850 net715
*1851 net716
*1852 net717
*1853 net718
*1854 net719
*1855 net72
*1856 net720
*1857 net721
*1858 net722
*1859 net723
*1860 net724
*1861 net725
*1862 net726
*1863 net727
*1864 net728
*1865 net729
*1866 net73
*1867 net730
*1868 net731
*1869 net732
*1870 net733
*1871 net734
*1872 net735
*1873 net736
*1874 net737
*1875 net738
*1876 net739
*1877 net74
*1878 net740
*1879 net741
*1880 net742
*1881 net743
*1882 net744
*1883 net745
*1884 net746
*1885 net747
*1886 net748
*1887 net749
*1888 net75
*1889 net750
*1890 net751
*1891 net752
*1892 net753
*1893 net754
*1894 net755
*1895 net756
*1896 net757
*1897 net758
*1898 net759
*1899 net76
*1900 net760
*1901 net761
*1902 net762
*1903 net763
*1904 net764
*1905 net765
*1906 net766
*1907 net767
*1908 net768
*1909 net769
*1910 net77
*1911 net770
*1912 net771
*1913 net772
*1914 net773
*1915 net774
*1916 net775
*1917 net776
*1918 net777
*1919 net778
*1920 net779
*1921 net78
*1922 net780
*1923 net781
*1924 net782
*1925 net783
*1926 net784
*1927 net785
*1928 net786
*1929 net787
*1930 net788
*1931 net789
*1932 net79
*1933 net790
*1934 net791
*1935 net792
*1936 net793
*1937 net794
*1938 net795
*1939 net796
*1940 net797
*1941 net798
*1942 net799
*1943 net8
*1944 net80
*1945 net800
*1946 net801
*1947 net802
*1948 net803
*1949 net804
*1950 net805
*1951 net806
*1952 net807
*1953 net808
*1954 net809
*1955 net81
*1956 net810
*1957 net811
*1958 net812
*1959 net813
*1960 net814
*1961 net815
*1962 net816
*1963 net817
*1964 net818
*1965 net819
*1966 net82
*1967 net820
*1968 net821
*1969 net822
*1970 net823
*1971 net824
*1972 net825
*1973 net826
*1974 net827
*1975 net828
*1976 net829
*1977 net83
*1978 net830
*1979 net831
*1980 net832
*1981 net833
*1982 net834
*1983 net835
*1984 net836
*1985 net837
*1986 net838
*1987 net839
*1988 net84
*1989 net840
*1990 net841
*1991 net842
*1992 net843
*1993 net844
*1994 net845
*1995 net846
*1996 net847
*1997 net848
*1998 net849
*1999 net85
*2000 net850
*2001 net851
*2002 net852
*2003 net853
*2004 net854
*2005 net855
*2006 net856
*2007 net857
*2008 net858
*2009 net859
*2010 net86
*2011 net860
*2012 net861
*2013 net862
*2014 net863
*2015 net864
*2016 net865
*2017 net866
*2018 net867
*2019 net868
*2020 net869
*2021 net87
*2022 net870
*2023 net871
*2024 net872
*2025 net873
*2026 net874
*2027 net875
*2028 net876
*2029 net877
*2030 net878
*2031 net879
*2032 net88
*2033 net880
*2034 net881
*2035 net882
*2036 net883
*2037 net884
*2038 net885
*2039 net886
*2040 net887
*2041 net888
*2042 net889
*2043 net89