*SPEF "ieee 1481-1999"
*DESIGN "multiplexer"
*DATE "11:11:11 Fri 11 11, 1111"
*VENDOR "OpenRCX"
*PROGRAM "Parallel Extraction"
*VERSION "1.0"
*DESIGN_FLOW "NAME_SCOPE LOCAL" "PIN_CAP NONE"
*DIVIDER /
*DELIMITER :
*BUS_DELIMITER []
*T_UNIT 1 NS
*C_UNIT 1 PF
*R_UNIT 1 OHM
*L_UNIT 1 HENRY

*NAME_MAP
*1 cap_addr[0]
*2 cap_addr[1]
*3 cap_addr[2]
*4 cap_addr[3]
*5 cap_addr[4]
*6 cap_addr[5]
*7 cap_addr[6]
*8 cap_addr[7]
*9 cap_addr[8]
*10 cap_io_in[0]
*11 cap_io_in[1]
*12 cap_io_in[2]
*13 cap_io_in[3]
*14 cap_io_in[4]
*15 cap_io_in[5]
*16 cap_io_in[6]
*17 cap_io_in[7]
*18 cap_io_in[8]
*19 custom_settings[0]
*20 custom_settings[10]
*21 custom_settings[11]
*22 custom_settings[12]
*23 custom_settings[13]
*24 custom_settings[14]
*25 custom_settings[15]
*26 custom_settings[16]
*27 custom_settings[17]
*28 custom_settings[18]
*29 custom_settings[19]
*30 custom_settings[1]
*31 custom_settings[20]
*32 custom_settings[21]
*33 custom_settings[22]
*34 custom_settings[23]
*35 custom_settings[24]
*36 custom_settings[25]
*37 custom_settings[26]
*38 custom_settings[27]
*39 custom_settings[28]
*40 custom_settings[29]
*41 custom_settings[2]
*42 custom_settings[30]
*43 custom_settings[31]
*44 custom_settings[3]
*45 custom_settings[4]
*46 custom_settings[5]
*47 custom_settings[6]
*48 custom_settings[7]
*49 custom_settings[8]
*50 custom_settings[9]
*51 io_in_0
*52 net624
*53 io_oeb[10]
*54 io_oeb[11]
*55 io_oeb[12]
*56 io_oeb[13]
*57 io_oeb[14]
*58 io_oeb[15]
*59 io_oeb[16]
*60 io_oeb[17]
*61 io_oeb[18]
*62 io_oeb[19]
*63 io_oeb[1]
*64 io_oeb[20]
*65 io_oeb[21]
*66 io_oeb[22]
*67 io_oeb[23]
*68 io_oeb[24]
*69 io_oeb[25]
*70 io_oeb[26]
*71 io_oeb[27]
*72 io_oeb[28]
*73 io_oeb[29]
*74 io_oeb[2]
*75 io_oeb[30]
*76 io_oeb[31]
*77 io_oeb[32]
*78 io_oeb[33]
*79 io_oeb[34]
*80 io_oeb[35]
*81 io_oeb[36]
*82 io_oeb[37]
*83 net621
*84 io_oeb[4]
*85 io_oeb[5]
*86 io_oeb[6]
*87 io_oeb[7]
*88 io_oeb[8]
*89 io_oeb[9]
*90 io_oeb_6502
*91 io_oeb_8x305[0]
*92 io_oeb_8x305[1]
*93 io_oeb_8x305[2]
*94 io_oeb_8x305[3]
*95 io_oeb_8x305[4]
*96 io_oeb_as1802
*97 io_oeb_scrapcpu[0]
*98 io_oeb_scrapcpu[10]
*99 io_oeb_scrapcpu[11]
*100 io_oeb_scrapcpu[12]
*101 io_oeb_scrapcpu[13]
*102 io_oeb_scrapcpu[14]
*103 io_oeb_scrapcpu[15]
*104 io_oeb_scrapcpu[16]
*105 io_oeb_scrapcpu[17]
*106 io_oeb_scrapcpu[18]
*107 io_oeb_scrapcpu[19]
*108 io_oeb_scrapcpu[1]
*109 io_oeb_scrapcpu[20]
*110 io_oeb_scrapcpu[21]
*111 io_oeb_scrapcpu[22]
*112 io_oeb_scrapcpu[23]
*113 io_oeb_scrapcpu[24]
*114 io_oeb_scrapcpu[25]
*115 io_oeb_scrapcpu[26]
*116 io_oeb_scrapcpu[27]
*117 io_oeb_scrapcpu[28]
*118 io_oeb_scrapcpu[29]
*119 io_oeb_scrapcpu[2]
*120 io_oeb_scrapcpu[30]
*121 io_oeb_scrapcpu[31]
*122 io_oeb_scrapcpu[32]
*123 io_oeb_scrapcpu[33]
*124 io_oeb_scrapcpu[34]
*125 io_oeb_scrapcpu[35]
*126 io_oeb_scrapcpu[3]
*127 io_oeb_scrapcpu[4]
*128 io_oeb_scrapcpu[5]
*129 io_oeb_scrapcpu[6]
*130 io_oeb_scrapcpu[7]
*131 io_oeb_scrapcpu[8]
*132 io_oeb_scrapcpu[9]
*133 io_oeb_vliw[0]
*134 io_oeb_vliw[10]
*135 io_oeb_vliw[11]
*136 io_oeb_vliw[12]
*137 io_oeb_vliw[13]
*138 io_oeb_vliw[14]
*139 io_oeb_vliw[15]
*140 io_oeb_vliw[16]
*141 io_oeb_vliw[17]
*142 io_oeb_vliw[18]
*143 io_oeb_vliw[19]
*144 io_oeb_vliw[1]
*145 io_oeb_vliw[20]
*146 io_oeb_vliw[21]
*147 io_oeb_vliw[22]
*148 io_oeb_vliw[23]
*149 io_oeb_vliw[24]
*150 io_oeb_vliw[25]
*151 io_oeb_vliw[26]
*152 io_oeb_vliw[27]
*153 io_oeb_vliw[28]
*154 io_oeb_vliw[29]
*155 io_oeb_vliw[2]
*156 io_oeb_vliw[30]
*157 io_oeb_vliw[31]
*158 io_oeb_vliw[32]
*159 io_oeb_vliw[33]
*160 io_oeb_vliw[34]
*161 io_oeb_vliw[35]
*162 io_oeb_vliw[3]
*163 io_oeb_vliw[4]
*164 io_oeb_vliw[5]
*165 io_oeb_vliw[6]
*166 io_oeb_vliw[7]
*167 io_oeb_vliw[8]
*168 io_oeb_vliw[9]
*169 io_oeb_z80[0]
*170 io_oeb_z80[10]
*171 io_oeb_z80[11]
*172 io_oeb_z80[12]
*173 io_oeb_z80[13]
*174 io_oeb_z80[14]
*175 io_oeb_z80[15]
*176 io_oeb_z80[16]
*177 io_oeb_z80[17]
*178 io_oeb_z80[18]
*179 io_oeb_z80[19]
*180 io_oeb_z80[1]
*181 io_oeb_z80[20]
*182 io_oeb_z80[21]
*183 io_oeb_z80[22]
*184 io_oeb_z80[23]
*185 io_oeb_z80[24]
*186 io_oeb_z80[25]
*187 io_oeb_z80[26]
*188 io_oeb_z80[27]
*189 io_oeb_z80[28]
*190 io_oeb_z80[29]
*191 io_oeb_z80[2]
*192 io_oeb_z80[30]
*193 io_oeb_z80[31]
*194 io_oeb_z80[32]
*195 io_oeb_z80[33]
*196 io_oeb_z80[34]
*197 io_oeb_z80[35]
*198 io_oeb_z80[3]
*199 io_oeb_z80[4]
*200 io_oeb_z80[5]
*201 io_oeb_z80[6]
*202 io_oeb_z80[7]
*203 io_oeb_z80[8]
*204 io_oeb_z80[9]
*205 net622
*206 io_out[10]
*207 io_out[11]
*208 io_out[12]
*209 io_out[13]
*210 io_out[14]
*211 io_out[15]
*212 io_out[16]
*213 io_out[17]
*214 io_out[18]
*215 io_out[19]
*216 io_out[1]
*217 io_out[20]
*218 io_out[21]
*219 io_out[22]
*220 io_out[23]
*221 io_out[24]
*222 io_out[25]
*223 io_out[26]
*224 io_out[27]
*225 io_out[28]
*226 io_out[29]
*227 io_out[2]
*228 io_out[30]
*229 io_out[31]
*230 io_out[32]
*231 io_out[33]
*232 io_out[34]
*233 io_out[35]
*234 io_out[36]
*235 io_out[37]
*236 io_out[3]
*237 io_out[4]
*238 io_out[5]
*239 io_out[6]
*240 io_out[7]
*241 io_out[8]
*242 io_out[9]
*243 io_out_6502[0]
*244 io_out_6502[10]
*245 io_out_6502[11]
*246 io_out_6502[12]
*247 io_out_6502[13]
*248 io_out_6502[14]
*249 io_out_6502[15]
*250 io_out_6502[16]
*251 io_out_6502[17]
*252 io_out_6502[18]
*253 io_out_6502[19]
*254 io_out_6502[1]
*255 io_out_6502[20]
*256 io_out_6502[21]
*257 io_out_6502[22]
*258 io_out_6502[23]
*259 io_out_6502[24]
*260 io_out_6502[25]
*261 io_out_6502[26]
*262 io_out_6502[27]
*263 io_out_6502[28]
*264 io_out_6502[29]
*265 io_out_6502[2]
*266 io_out_6502[30]
*267 io_out_6502[31]
*268 io_out_6502[32]
*269 io_out_6502[33]
*270 io_out_6502[34]
*271 io_out_6502[35]
*272 io_out_6502[3]
*273 io_out_6502[4]
*274 io_out_6502[5]
*275 io_out_6502[6]
*276 io_out_6502[7]
*277 io_out_6502[8]
*278 io_out_6502[9]
*279 io_out_8x305[0]
*280 io_out_8x305[10]
*281 io_out_8x305[11]
*282 io_out_8x305[12]
*283 io_out_8x305[13]
*284 io_out_8x305[14]
*285 io_out_8x305[15]
*286 io_out_8x305[16]
*287 io_out_8x305[17]
*288 io_out_8x305[18]
*289 io_out_8x305[19]
*290 io_out_8x305[1]
*291 io_out_8x305[20]
*292 io_out_8x305[21]
*293 io_out_8x305[22]
*294 io_out_8x305[23]
*295 io_out_8x305[24]
*296 io_out_8x305[25]
*297 io_out_8x305[26]
*298 io_out_8x305[27]
*299 io_out_8x305[28]
*300 io_out_8x305[29]
*301 io_out_8x305[2]
*302 io_out_8x305[30]
*303 io_out_8x305[31]
*304 io_out_8x305[32]
*305 io_out_8x305[33]
*306 io_out_8x305[34]
*307 io_out_8x305[35]
*308 io_out_8x305[3]
*309 io_out_8x305[4]
*310 io_out_8x305[5]
*311 io_out_8x305[6]
*312 io_out_8x305[7]
*313 io_out_8x305[8]
*314 io_out_8x305[9]
*315 io_out_as1802[0]
*316 io_out_as1802[10]
*317 io_out_as1802[11]
*318 io_out_as1802[12]
*319 io_out_as1802[13]
*320 io_out_as1802[14]
*321 io_out_as1802[15]
*322 io_out_as1802[16]
*323 io_out_as1802[17]
*324 io_out_as1802[18]
*325 io_out_as1802[19]
*326 io_out_as1802[1]
*327 io_out_as1802[20]
*328 io_out_as1802[21]
*329 io_out_as1802[22]
*330 io_out_as1802[23]
*331 io_out_as1802[24]
*332 io_out_as1802[25]
*333 io_out_as1802[26]
*334 io_out_as1802[27]
*335 io_out_as1802[28]
*336 io_out_as1802[29]
*337 io_out_as1802[2]
*338 io_out_as1802[30]
*339 io_out_as1802[31]
*340 io_out_as1802[32]
*341 io_out_as1802[33]
*342 io_out_as1802[34]
*343 io_out_as1802[35]
*344 io_out_as1802[3]
*345 io_out_as1802[4]
*346 io_out_as1802[5]
*347 io_out_as1802[6]
*348 io_out_as1802[7]
*349 io_out_as1802[8]
*350 io_out_as1802[9]
*351 io_out_scrapcpu[0]
*352 io_out_scrapcpu[10]
*353 io_out_scrapcpu[11]
*354 io_out_scrapcpu[12]
*355 io_out_scrapcpu[13]
*356 io_out_scrapcpu[14]
*357 io_out_scrapcpu[15]
*358 io_out_scrapcpu[16]
*359 io_out_scrapcpu[17]
*360 io_out_scrapcpu[18]
*361 io_out_scrapcpu[19]
*362 io_out_scrapcpu[1]
*363 io_out_scrapcpu[20]
*364 io_out_scrapcpu[21]
*365 io_out_scrapcpu[22]
*366 io_out_scrapcpu[23]
*367 io_out_scrapcpu[24]
*368 io_out_scrapcpu[25]
*369 io_out_scrapcpu[26]
*370 io_out_scrapcpu[27]
*371 io_out_scrapcpu[28]
*372 io_out_scrapcpu[29]
*373 io_out_scrapcpu[2]
*374 io_out_scrapcpu[30]
*375 io_out_scrapcpu[31]
*376 io_out_scrapcpu[32]
*377 io_out_scrapcpu[33]
*378 io_out_scrapcpu[34]
*379 io_out_scrapcpu[35]
*380 io_out_scrapcpu[3]
*381 io_out_scrapcpu[4]
*382 io_out_scrapcpu[5]
*383 io_out_scrapcpu[6]
*384 io_out_scrapcpu[7]
*385 io_out_scrapcpu[8]
*386 io_out_scrapcpu[9]
*387 io_out_vliw[0]
*388 io_out_vliw[10]
*389 io_out_vliw[11]
*390 io_out_vliw[12]
*391 io_out_vliw[13]
*392 io_out_vliw[14]
*393 io_out_vliw[15]
*394 io_out_vliw[16]
*395 io_out_vliw[17]
*396 io_out_vliw[18]
*397 io_out_vliw[19]
*398 io_out_vliw[1]
*399 io_out_vliw[20]
*400 io_out_vliw[21]
*401 io_out_vliw[22]
*402 io_out_vliw[23]
*403 io_out_vliw[24]
*404 io_out_vliw[25]
*405 io_out_vliw[26]
*406 io_out_vliw[27]
*407 io_out_vliw[28]
*408 io_out_vliw[29]
*409 io_out_vliw[2]
*410 io_out_vliw[30]
*411 io_out_vliw[31]
*412 io_out_vliw[32]
*413 io_out_vliw[33]
*414 io_out_vliw[34]
*415 io_out_vliw[35]
*416 io_out_vliw[3]
*417 io_out_vliw[4]
*418 io_out_vliw[5]
*419 io_out_vliw[6]
*420 io_out_vliw[7]
*421 io_out_vliw[8]
*422 io_out_vliw[9]
*423 io_out_z80[0]
*424 io_out_z80[10]
*425 io_out_z80[11]
*426 io_out_z80[12]
*427 io_out_z80[13]
*428 io_out_z80[14]
*429 io_out_z80[15]
*430 io_out_z80[16]
*431 io_out_z80[17]
*432 io_out_z80[18]
*433 io_out_z80[19]
*434 io_out_z80[1]
*435 io_out_z80[20]
*436 io_out_z80[21]
*437 io_out_z80[22]
*438 io_out_z80[23]
*439 io_out_z80[24]
*440 io_out_z80[25]
*441 io_out_z80[26]
*442 io_out_z80[27]
*443 io_out_z80[28]
*444 io_out_z80[29]
*445 io_out_z80[2]
*446 io_out_z80[30]
*447 io_out_z80[31]
*448 io_out_z80[32]
*449 io_out_z80[33]
*450 io_out_z80[34]
*451 io_out_z80[35]
*452 io_out_z80[3]
*453 io_out_z80[4]
*454 io_out_z80[5]
*455 io_out_z80[6]
*456 io_out_z80[7]
*457 io_out_z80[8]
*458 io_out_z80[9]
*459 net625
*460 la_data_out[10]
*461 la_data_out[11]
*462 la_data_out[12]
*463 la_data_out[13]
*464 la_data_out[14]
*465 la_data_out[15]
*466 la_data_out[16]
*467 la_data_out[17]
*468 la_data_out[18]
*469 la_data_out[19]
*470 la_data_out[1]
*471 la_data_out[20]
*472 la_data_out[21]
*473 la_data_out[22]
*474 la_data_out[23]
*475 la_data_out[24]
*476 la_data_out[25]
*477 la_data_out[26]
*478 la_data_out[27]
*479 la_data_out[28]
*480 la_data_out[29]
*481 la_data_out[2]
*482 la_data_out[30]
*483 la_data_out[31]
*484 la_data_out[32]
*485 la_data_out[33]
*486 la_data_out[34]
*487 la_data_out[35]
*488 la_data_out[36]
*489 la_data_out[37]
*490 la_data_out[38]
*491 la_data_out[39]
*492 net623
*493 la_data_out[4]
*494 la_data_out[5]
*495 la_data_out[6]
*496 la_data_out[7]
*497 la_data_out[8]
*498 la_data_out[9]
*499 rst_6502
*500 rst_8x305
*501 rst_as1802
*502 rst_scrapcpu
*503 rst_vliw
*504 rst_z80
*507 wb_clk_i
*508 wb_rst_i
*509 wbs_ack_o
*510 wbs_adr_i[0]
*511 wbs_adr_i[10]
*512 wbs_adr_i[11]
*513 wbs_adr_i[12]
*514 wbs_adr_i[13]
*515 wbs_adr_i[14]
*516 wbs_adr_i[15]
*517 wbs_adr_i[16]
*518 wbs_adr_i[17]
*519 wbs_adr_i[18]
*520 wbs_adr_i[19]
*521 wbs_adr_i[1]
*522 wbs_adr_i[20]
*523 wbs_adr_i[21]
*524 wbs_adr_i[22]
*525 wbs_adr_i[23]
*526 wbs_adr_i[24]
*527 wbs_adr_i[25]
*528 wbs_adr_i[26]
*529 wbs_adr_i[27]
*530 wbs_adr_i[28]
*531 wbs_adr_i[29]
*532 wbs_adr_i[2]
*533 wbs_adr_i[30]
*534 wbs_adr_i[31]
*535 wbs_adr_i[3]
*536 wbs_adr_i[4]
*537 wbs_adr_i[5]
*538 wbs_adr_i[6]
*539 wbs_adr_i[7]
*540 wbs_adr_i[8]
*541 wbs_adr_i[9]
*542 wbs_cyc_i
*543 wbs_dat_i[0]
*544 wbs_dat_i[10]
*545 wbs_dat_i[11]
*546 wbs_dat_i[12]
*547 wbs_dat_i[13]
*548 wbs_dat_i[14]
*549 wbs_dat_i[15]
*550 wbs_dat_i[16]
*551 wbs_dat_i[17]
*552 wbs_dat_i[18]
*553 wbs_dat_i[19]
*554 wbs_dat_i[1]
*555 wbs_dat_i[20]
*556 wbs_dat_i[21]
*557 wbs_dat_i[22]
*558 wbs_dat_i[23]
*559 wbs_dat_i[24]
*560 wbs_dat_i[25]
*561 wbs_dat_i[26]
*562 wbs_dat_i[27]
*563 wbs_dat_i[28]
*564 wbs_dat_i[29]
*565 wbs_dat_i[2]
*566 wbs_dat_i[30]
*567 wbs_dat_i[31]
*568 wbs_dat_i[3]
*569 wbs_dat_i[4]
*570 wbs_dat_i[5]
*571 wbs_dat_i[6]
*572 wbs_dat_i[7]
*573 wbs_dat_i[8]
*574 wbs_dat_i[9]
*575 wbs_dat_o[0]
*576 wbs_dat_o[10]
*577 wbs_dat_o[11]
*578 wbs_dat_o[12]
*579 wbs_dat_o[13]
*580 wbs_dat_o[14]
*581 wbs_dat_o[15]
*582 wbs_dat_o[16]
*583 wbs_dat_o[17]
*584 wbs_dat_o[18]
*585 wbs_dat_o[19]
*586 wbs_dat_o[1]
*587 wbs_dat_o[20]
*588 wbs_dat_o[21]
*589 wbs_dat_o[22]
*590 wbs_dat_o[23]
*591 wbs_dat_o[24]
*592 wbs_dat_o[25]
*593 wbs_dat_o[26]
*594 wbs_dat_o[27]
*595 wbs_dat_o[28]
*596 wbs_dat_o[29]
*597 wbs_dat_o[2]
*598 wbs_dat_o[30]
*599 wbs_dat_o[31]
*600 wbs_dat_o[3]
*601 wbs_dat_o[4]
*602 wbs_dat_o[5]
*603 wbs_dat_o[6]
*604 wbs_dat_o[7]
*605 wbs_dat_o[8]
*606 wbs_dat_o[9]
*607 wbs_stb_i
*608 wbs_we_i
*609 _0000_
*610 _0001_
*611 _0002_
*612 _0003_
*613 _0004_
*614 _0005_
*615 _0006_
*616 _0007_
*617 _0008_
*618 _0009_
*619 _0010_
*620 _0011_
*621 _0012_
*622 _0013_
*623 _0014_
*624 _0015_
*625 _0016_
*626 _0017_
*627 _0018_
*628 _0019_
*629 _0020_
*630 _0021_
*631 _0022_
*632 _0023_
*633 _0024_
*634 _0025_
*635 _0026_
*636 _0027_
*637 _0028_
*638 _0029_
*639 _0030_
*640 _0031_
*641 _0032_
*642 _0033_
*643 _0034_
*644 _0035_
*645 _0036_
*646 _0037_
*647 _0038_
*648 _0039_
*649 _0040_
*650 _0041_
*651 _0042_
*652 _0043_
*653 _0044_
*654 _0045_
*655 _0046_
*656 _0047_
*657 _0048_
*658 _0049_
*659 _0050_
*660 _0051_
*661 _0052_
*662 _0053_
*663 _0054_
*664 _0055_
*665 _0056_
*666 _0057_
*667 _0058_
*668 _0059_
*669 _0060_
*670 _0061_
*671 _0062_
*672 _0063_
*673 _0064_
*674 _0065_
*675 _0066_
*676 _0067_
*677 _0068_
*678 _0069_
*679 _0070_
*680 _0071_
*681 _0072_
*682 _0073_
*683 _0074_
*684 _0075_
*685 _0076_
*686 _0077_
*687 _0078_
*688 _0079_
*689 _0080_
*690 _0081_
*691 _0082_
*692 _0083_
*693 _0084_
*694 _0085_
*695 _0086_
*696 _0087_
*697 _0088_
*698 _0089_
*699 _0090_
*700 _0091_
*701 _0092_
*702 _0093_
*703 _0094_
*704 _0095_
*705 _0096_
*706 _0097_
*707 _0098_
*708 _0099_
*709 _0100_
*710 _0101_
*711 _0102_
*712 _0103_
*713 _0104_
*714 _0105_
*715 _0106_
*716 _0107_
*717 _0108_
*718 _0109_
*719 _0110_
*720 _0111_
*721 _0112_
*722 _0113_
*723 _0114_
*724 _0115_
*725 _0116_
*726 _0117_
*727 _0118_
*728 _0119_
*729 _0120_
*730 _0121_
*731 _0122_
*732 _0123_
*733 _0124_
*734 _0125_
*735 _0126_
*736 _0127_
*737 _0128_
*738 _0129_
*739 _0130_
*740 _0131_
*741 _0132_
*742 _0133_
*743 _0134_
*744 _0135_
*745 _0136_
*746 _0137_
*747 _0138_
*748 _0139_
*749 _0140_
*750 _0141_
*751 _0142_
*752 _0143_
*753 _0144_
*754 _0145_
*755 _0146_
*756 _0147_
*757 _0148_
*758 _0149_
*759 _0150_
*760 _0151_
*761 _0152_
*762 _0153_
*763 _0154_
*764 _0155_
*765 _0156_
*766 _0157_
*767 _0158_
*768 _0159_
*769 _0160_
*770 _0161_
*771 _0162_
*772 _0163_
*773 _0164_
*774 _0165_
*775 _0166_
*776 _0167_
*777 _0168_
*778 _0169_
*779 _0170_
*780 _0171_
*781 _0172_
*782 _0173_
*783 _0174_
*784 _0175_
*785 _0176_
*786 _0177_
*787 _0178_
*788 _0179_
*789 _0180_
*790 _0181_
*791 _0182_
*792 _0183_
*793 _0184_
*794 _0185_
*795 _0186_
*796 _0187_
*797 _0188_
*798 _0189_
*799 _0190_
*800 _0191_
*801 _0192_
*802 _0193_
*803 _0194_
*804 _0195_
*805 _0196_
*806 _0197_
*807 _0198_
*808 _0199_
*809 _0200_
*810 _0201_
*811 _0202_
*812 _0203_
*813 _0204_
*814 _0205_
*815 _0206_
*816 _0207_
*817 _0208_
*818 _0209_
*819 _0210_
*820 _0211_
*821 _0212_
*822 _0213_
*823 _0214_
*824 _0215_
*825 _0216_
*826 _0217_
*827 _0218_
*828 _0219_
*829 _0220_
*830 _0221_
*831 _0222_
*832 _0223_
*833 _0224_
*834 _0225_
*835 _0226_
*836 _0227_
*837 _0228_
*838 _0229_
*839 _0230_
*840 _0231_
*841 _0232_
*842 _0233_
*843 _0234_
*844 _0235_
*845 _0236_
*846 _0237_
*847 _0238_
*848 _0239_
*849 _0240_
*850 _0241_
*851 _0242_
*852 _0243_
*853 _0244_
*854 _0245_
*855 _0246_
*856 _0247_
*857 _0248_
*858 _0249_
*859 _0250_
*860 _0251_
*861 _0252_
*862 _0253_
*863 _0254_
*864 _0255_
*865 _0256_
*866 _0257_
*867 _0258_
*868 _0259_
*869 _0260_
*870 _0261_
*871 _0262_
*872 _0263_
*873 _0264_
*874 _0265_
*875 _0266_
*876 _0267_
*877 _0268_
*878 _0269_
*879 _0270_
*880 _0271_
*881 _0272_
*882 _0273_
*883 _0274_
*884 _0275_
*885 _0276_
*886 _0277_
*887 _0278_
*888 _0279_
*889 _0280_
*890 _0281_
*891 _0282_
*892 _0283_
*893 _0284_
*894 _0285_
*895 _0286_
*896 _0287_
*897 _0288_
*898 _0289_
*899 _0290_
*900 _0291_
*901 _0292_
*902 _0293_
*903 _0294_
*904 _0295_
*905 _0296_
*906 _0297_
*907 _0298_
*908 _0299_
*909 _0300_
*910 _0301_
*911 _0302_
*912 _0303_
*913 _0304_
*914 _0305_
*915 _0306_
*916 _0307_
*917 _0308_
*918 _0309_
*919 _0310_
*920 _0311_
*921 _0312_
*922 _0313_
*923 _0314_
*924 _0315_
*925 _0316_
*926 _0317_
*927 _0318_
*928 _0319_
*929 _0320_
*930 _0321_
*931 _0322_
*932 _0323_
*933 _0324_
*934 _0325_
*935 _0326_
*936 _0327_
*937 _0328_
*938 _0329_
*939 _0330_
*940 _0331_
*941 _0332_
*942 _0333_
*943 _0334_
*944 _0335_
*945 _0336_
*946 _0337_
*947 _0338_
*948 _0339_
*949 _0340_
*950 _0341_
*951 _0342_
*952 _0343_
*953 _0344_
*954 _0345_
*955 _0346_
*956 _0347_
*957 _0348_
*958 _0349_
*959 _0350_
*960 _0351_
*961 _0352_
*962 _0353_
*963 _0354_
*964 _0355_
*965 _0356_
*966 _0357_
*967 _0358_
*968 _0359_
*969 _0360_
*970 _0361_
*971 _0362_
*972 _0363_
*973 _0364_
*974 _0365_
*975 _0366_
*976 _0367_
*977 _0368_
*978 _0369_
*979 _0370_
*980 _0371_
*981 _0372_
*982 _0373_
*983 _0374_
*984 _0375_
*985 _0376_
*986 _0377_
*987 _0378_
*988 _0379_
*989 _0380_
*990 _0381_
*991 _0382_
*992 _0383_
*993 _0384_
*994 _0385_
*995 _0386_
*996 _0387_
*997 _0388_
*998 _0389_
*999 _0390_
*1000 _0391_
*1001 _0392_
*1002 _0393_
*1003 _0394_
*1004 _0395_
*1005 _0396_
*1006 _0397_
*1007 _0398_
*1008 _0399_
*1009 _0400_
*1010 _0401_
*1011 _0402_
*1012 _0403_
*1013 _0404_
*1014 _0405_
*1015 _0406_
*1016 _0407_
*1017 _0408_
*1018 _0409_
*1019 _0410_
*1020 _0411_
*1021 _0412_
*1022 _0413_
*1023 _0414_
*1024 _0415_
*1025 _0416_
*1026 _0417_
*1027 _0418_
*1028 _0419_
*1029 _0420_
*1030 _0421_
*1031 _0422_
*1032 _0423_
*1033 _0424_
*1034 _0425_
*1035 _0426_
*1036 _0427_
*1037 _0428_
*1038 _0429_
*1039 _0430_
*1040 _0431_
*1041 _0432_
*1042 _0433_
*1043 _0434_
*1044 _0435_
*1045 _0436_
*1046 _0437_
*1047 _0438_
*1048 _0439_
*1049 _0440_
*1050 _0441_
*1051 _0442_
*1052 _0443_
*1053 _0444_
*1054 _0445_
*1055 _0446_
*1056 _0447_
*1057 _0448_
*1058 _0449_
*1059 _0450_
*1060 _0451_
*1061 _0452_
*1062 _0453_
*1063 _0454_
*1064 _0455_
*1065 _0456_
*1066 _0457_
*1067 _0458_
*1068 _0459_
*1069 _0460_
*1070 _0461_
*1071 _0462_
*1072 _0463_
*1073 _0464_
*1074 _0465_
*1075 _0466_
*1076 _0467_
*1077 _0468_
*1078 _0469_
*1079 _0470_
*1080 _0471_
*1081 _0472_
*1082 _0473_
*1083 _0474_
*1084 _0475_
*1085 _0476_
*1086 _0477_
*1087 _0478_
*1088 _0479_
*1089 _0480_
*1090 _0481_
*1091 _0482_
*1092 _0483_
*1093 _0484_
*1094 _0485_
*1095 _0486_
*1096 _0487_
*1097 _0488_
*1098 _0489_
*1099 _0490_
*1100 _0491_
*1101 _0492_
*1102 _0493_
*1103 _0494_
*1104 _0495_
*1105 _0496_
*1106 _0497_
*1107 _0498_
*1108 clknet_0_wb_clk_i
*1109 clknet_4_0_0_wb_clk_i
*1110 clknet_4_10_0_wb_clk_i
*1111 clknet_4_11_0_wb_clk_i
*1112 clknet_4_12_0_wb_clk_i
*1113 clknet_4_13_0_wb_clk_i
*1114 clknet_4_14_0_wb_clk_i
*1115 clknet_4_15_0_wb_clk_i
*1116 clknet_4_1_0_wb_clk_i
*1117 clknet_4_2_0_wb_clk_i
*1118 clknet_4_3_0_wb_clk_i
*1119 clknet_4_4_0_wb_clk_i
*1120 clknet_4_5_0_wb_clk_i
*1121 clknet_4_6_0_wb_clk_i
*1122 clknet_4_7_0_wb_clk_i
*1123 clknet_4_8_0_wb_clk_i
*1124 clknet_4_9_0_wb_clk_i
*1125 design_select\[0\]
*1126 design_select\[1\]
*1127 design_select\[2\]
*1128 design_select\[3\]
*1129 net1
*1130 net10
*1131 net100
*1132 net1000
*1133 net1001
*1134 net1002
*1135 net1003
*1136 net1004
*1137 net1005
*1138 net1006
*1139 net1007
*1140 net1008
*1141 net1009
*1142 net101
*1143 net1010
*1144 net1011
*1145 net1012
*1146 net1013
*1147 net1014
*1148 net1015
*1149 net1016
*1150 net1017
*1151 net1018
*1152 net1019
*1153 net102
*1154 net1020
*1155 net1021
*1156 net1022
*1157 net1023
*1158 net1024
*1159 net1025
*1160 net1026
*1161 net1027
*1162 net1028
*1163 net1029
*1164 net103
*1165 net1030
*1166 net1031
*1167 net1032
*1168 net1033
*1169 net1034
*1170 net1035
*1171 net1036
*1172 net1037
*1173 net1038
*1174 net1039
*1175 net104
*1176 net1040
*1177 net1041
*1178 net1042
*1179 net1043
*1180 net1044
*1181 net1045
*1182 net1046
*1183 net1047
*1184 net1048
*1185 net1049
*1186 net105
*1187 net1050
*1188 net1051
*1189 net1052
*1190 net1053
*1191 net1054
*1192 net1055
*1193 net1056
*1194 net1057
*1195 net1058
*1196 net1059
*1197 net106
*1198 net1060
*1199 net1061
*1200 net1062
*1201 net1063
*1202 net1064
*1203 net1065
*1204 net1066
*1205 net1067
*1206 net1068
*1207 net1069
*1208 net107
*1209 net1070
*1210 net1071
*1211 net1072
*1212 net1073
*1213 net1074
*1214 net1075
*1215 net1076
*1216 net1077
*1217 net1078
*1218 net1079
*1219 net108
*1220 net1080
*1221 net1081
*1222 net1082
*1223 net1083
*1224 net1084
*1225 net1085
*1226 net1086
*1227 net1087
*1228 net1088
*1229 net1089
*1230 net109
*1231 net1090
*1232 net1091
*1233 net1092
*1234 net1093
*1235 net1094
*1236 net1095
*1237 net1096
*1238 net1097
*1239 net1098
*1240 net1099
*1241 net11
*1242 net110
*1243 net1100
*1244 net1101
*1245 net1102
*1246 net1103
*1247 net1104
*1248 net1105
*1249 net1106
*1250 net1107
*1251 net1108
*1252 net1109
*1253 net111
*1254 net1110
*1255 net1111
*1256 net1112
*1257 net1113
*1258 net1114
*1259 net1115
*1260 net1116
*1261 net1117
*1262 net1118
*1263 net1119
*1264 net112
*1265 net1120
*1266 net1121
*1267 net1122
*1268 net1123
*1269 net1124
*1270 net1125
*1271 net1126
*1272 net1127
*1273 net1128
*1274 net1129
*1275 net113
*1276 net1130
*1277 net1131
*1278 net1132
*1279 net1133
*1280 net1134
*1281 net1135
*1282 net1136
*1283 net1137
*1284 net1138
*1285 net1139
*1286 net114
*1287 net1140
*1288 net1141
*1289 net1142
*1290 net1143
*1291 net1144
*1292 net1145
*1293 net1146
*1294 net1147
*1295 net1148
*1296 net1149
*1297 net115
*1298 net1150
*1299 net1151
*1300 net1152
*1301 net1153
*1302 net1154
*1303 net1155
*1304 net1156
*1305 net1157
*1306 net1158
*1307 net1159
*1308 net116
*1309 net1160
*1310 net1161
*1311 net1162
*1312 net1163
*1313 net1164
*1314 net1165
*1315 net1166
*1316 net1167
*1317 net1168
*1318 net1169
*1319 net117
*1320 net1170
*1321 net1171
*1322 net1172
*1323 net1173
*1324 net1174
*1325 net1175
*1326 net1176
*1327 net1177
*1328 net1178
*1329 net1179
*1330 net118
*1331 net1180
*1332 net1181
*1333 net1182
*1334 net1183
*1335 net1184
*1336 net1185
*1337 net1186
*1338 net1187
*1339 net1188
*1340 net1189
*1341 net119
*1342 net1190
*1343 net1191
*1344 net1192
*1345 net1193
*1346 net1194
*1347 net1195
*1348 net1196
*1349 net1197
*1350 net1198
*1351 net1199
*1352 net12
*1353 net120
*1354 net1200
*1355 net1201
*1356 net1202
*1357 net1203
*1358 net1204
*1359 net1205
*1360 net1206
*1361 net1207
*1362 net1208
*1363 net1209
*1364 net121
*1365 net1210
*1366 net1211
*1367 net1212
*1368 net1213
*1369 net1214
*1370 net1215
*1371 net1216
*1372 net1217
*1373 net1218
*1374 net1219
*1375 net122
*1376 net1220
*1377 net1221
*1378 net1222
*1379 net1223
*1380 net1224
*1381 net1225
*1382 net1226
*1383 net1227
*1384 net1228
*1385 net1229
*1386 net123
*1387 net1230
*1388 net1231
*1389 net1232
*1390 net1233
*1391 net1234
*1392 net1235
*1393 net1236
*1394 net1237
*1395 net1238
*1396 net1239
*1397 net124
*1398 net1240
*1399 net1241
*1400 net1242
*1401 net1243
*1402 net1244
*1403 net1245
*1404 net1246
*1405 net1247
*1406 net1248
*1407 net1249
*1408 net125
*1409 net1250
*1410 net1251
*1411 net1252
*1412 net1253
*1413 net1254
*1414 net1255
*1415 net1256
*1416 net1257
*1417 net1258
*1418 net1259
*1419 net126
*1420 net1260
*1421 net1261
*1422 net1262
*1423 net1263
*1424 net1264
*1425 net1265
*1426 net1266
*1427 net1267
*1428 net1268
*1429 net1269
*1430 net127
*1431 net1270
*1432 net1271
*1433 net1272
*1434 net1273
*1435 net1274
*1436 net1275
*1437 net1276
*1438 net1277
*1439 net1278
*1440 net1279
*1441 net128
*1442 net1280
*1443 net1281
*1444 net1282
*1445 net1283
*1446 net1284
*1447 net1285
*1448 net1286
*1449 net1287
*1450 net1288
*1451 net1289
*1452 net129
*1453 net1290
*1454 net1291
*1455 net1292
*1456 net1293
*1457 net1294
*1458 net1295
*1459 net1296
*1460 net1297
*1461 net1298
*1462 net1299
*1463 net13
*1464 net130
*1465 net1300
*1466 net1301
*1467 net1302
*1468 net1303
*1469 net1304
*1470 net1305
*1471 net1306
*1472 net1307
*1473 net1308
*1474 net1309
*1475 net131
*1476 net1310
*1477 net1311
*1478 net1312
*1479 net1313
*1480 net1314
*1481 net1315
*1482 net1316
*1483 net1317
*1484 net1318
*1485 net1319
*1486 net132
*1487 net1320
*1488 net1321
*1489 net1322
*1490 net1323
*1491 net1324
*1492 net1325
*1493 net1326
*1494 net1327
*1495 net1328
*1496 net1329
*1497 net133
*1498 net1330
*1499 net1331
*1500 net1332
*1501 net1333
*1502 net1334
*1503 net1335
*1504 net1336
*1505 net1337
*1506 net1338
*1507 net1339
*1508 net134
*1509 net1340
*1510 net1341
*1511 net1342
*1512 net1343
*1513 net1344
*1514 net1345
*1515 net1346
*1516 net1347
*1517 net1348
*1518 net1349
*1519 net135
*1520 net1350
*1521 net1351
*1522 net1352
*1523 net1353
*1524 net1354
*1525 net1355
*1526 net1356
*1527 net1357
*1528 net1358
*1529 net1359
*1530 net136
*1531 net1360
*1532 net1361
*1533 net1362
*1534 net1363
*1535 net1364
*1536 net1365
*1537 net1366
*1538 net1367
*1539 net1368
*1540 net1369
*1541 net137
*1542 net1370
*1543 net1371
*1544 net1372
*1545 net1373
*1546 net1374
*1547 net1375
*1548 net1376
*1549 net1377
*1550 net1378
*1551 net1379
*1552 net138
*1553 net1380
*1554 net1381
*1555 net1382
*1556 net1383
*1557 net1384
*1558 net1385
*1559 net1386
*1560 net1387
*1561 net1388
*1562 net1389
*1563 net139
*1564 net1390
*1565 net1391
*1566 net1392
*1567 net1393
*1568 net1394
*1569 net1395
*1570 net1396
*1571 net1397
*1572 net1398
*1573 net1399
*1574 net14
*1575 net140
*1576 net1400
*1577 net1401
*1578 net1402
*1579 net1403
*1580 net1404
*1581 net1405
*1582 net1406
*1583 net1407
*1584 net1408
*1585 net1409
*1586 net141
*1587 net1410
*1588 net1411
*1589 net1412
*1590 net1413
*1591 net1414
*1592 net1415
*1593 net1416
*1594 net1417
*1595 net1418
*1596 net1419
*1597 net142
*1598 net1420
*1599 net1421
*1600 net1422
*1601 net1423
*1602 net1424
*1603 net1425
*1604 net1426
*1605 net1427
*1606 net143
*1607 net144
*1608 net145
*1609 net146
*1610 net147
*1611 net148
*1612 net149
*1613 net15
*1614 net150
*1615 net151
*1616 net152
*1617 net153
*1618 net154
*1619 net155
*1620 net156
*1621 net157
*1622 net158
*1623 net159
*1624 net16
*1625 net160
*1626 net161
*1627 net162
*1628 net163
*1629 net164
*1630 net165
*1631 net166
*1632 net167
*1633 net168
*1634 net169
*1635 net17
*1636 net170
*1637 net171
*1638 net172
*1639 net173
*1640 net174
*1641 net175
*1642 net176
*1643 net177
*1644 net178
*1645 net179
*1646 net18
*1647 net180
*1648 net181
*1649 net182
*1650 net183
*1651 net184
*1652 net185
*1653 net186
*1654 net187
*1655 net188
*1656 net189
*1657 net19
*1658 net190
*1659 net191
*1660 net192
*1661 net193
*1662 net194
*1663 net195
*1664 net196
*1665 net197
*1666 net198
*1667 net199
*1668 net2
*1669 net20
*1670 net200
*1671 net201
*1672 net202
*1673 net203
*1674 net204
*1675 net205
*1676 net206
*1677 net207
*1678 net208
*1679 net209
*1680 net21
*1681 net210
*1682 net211
*1683 net212
*1684 net213
*1685 net214
*1686 net215
*1687 net216
*1688 net217
*1689 net218
*1690 net219
*1691 net22
*1692 net220
*1693 net221
*1694 net222
*1695 net223
*1696 net224
*1697 net225
*1698 net226
*1699 net227
*1700 net228
*1701 net229
*1702 net23
*1703 net230
*1704 net231
*1705 net232
*1706 net233
*1707 net234
*1708 net235
*1709 net236
*1710 net237
*1711 net238
*1712 net239
*1713 net24
*1714 net240
*1715 net241
*1716 net242
*1717 net243
*1718 net244
*1719 net245
*1720 net246
*1721 net247
*1722 net248
*1723 net249
*1724 net25
*1725 net250
*1726 net251
*1727 net252
*1728 net253
*1729 net254
*1730 net255
*1731 net256
*1732 net257
*1733 net258
*1734 net259
*1735 net26
*1736 net260
*1737 net261
*1738 net262
*1739 net263
*1740 net264
*1741 net265
*1742 net266
*1743 net267
*1744 net268
*1745 net269
*1746 net27
*1747 net270
*1748 net271
*1749 net272
*1750 net273
*1751 net274
*1752 net275
*1753 net276
*1754 net277
*1755 net278
*1756 net279
*1757 net28
*1758 net280
*1759 net281
*1760 net282
*1761 net283
*1762 net284
*1763 net285
*1764 net286
*1765 net287
*1766 net288
*1767 net289
*1768 net29
*1769 net290
*1770 net291
*1771 net292
*1772 net293
*1773 net294
*1774 net295
*1775 net296
*1776 net297
*1777 net298
*1778 net299
*1779 net3
*1780 net30
*1781 net300
*1782 net301
*1783 net302
*1784 net303
*1785 net304
*1786 net305
*1787 net306
*1788 net307
*1789 net308
*1790 net309
*1791 net31
*1792 net310
*1793 net311
*1794 net312
*1795 net313
*1796 net314
*1797 net315
*1798 net316
*1799 net317
*1800 net318
*1801 net319
*1802 net32
*1803 net320
*1804 net321
*1805 net322
*1806 net323
*1807 net324
*1808 net325
*1809 net326
*1810 net327
*1811 net328
*1812 net329
*1813 net33
*1814 net330
*1815 net331
*1816 net332
*1817 net333
*1818 net334
*1819 net335
*1820 net336
*1821 net337
*1822 net338
*1823 net339
*1824 net34
*1825 net340
*1826 net341
*1827 net342
*1828 net343
*1829 net344
*1830 net345
*1831 net346
*1832 net347
*1833 net348
*1834 net349
*1835 net35
*1836 net350
*1837 net351
*1838 net352
*1839 net353
*1840 net354
*1841 net355
*1842 net356
*1843 net357
*1844 net358
*1845 net359
*1846 net36
*1847 net360
*1848 net361
*1849 net362
*1850 net363
*1851 net364
*1852 net365
*1853 net366
*1854 net367
*1855 net368
*1856 net369
*1857 net37
*1858 net370
*1859 net371
*1860 net372
*1861 net373
*1862 net374
*1863 net375
*1864 net376
*1865 net377
*1866 net378
*1867 net379
*1868 net38
*1869 net380
*1870 net381
*1871 net382
*1872 net383
*1873 net384
*1874 net385
*1875 net386
*1876 net387
*1877 net388
*1878 net389
*1879 net39
*1880 net390
*1881 net391
*1882 net392
*1883 net393
*1884 net394
*1885 net395
*1886 net396
*1887 net397
*1888 net398
*1889 net399
*1890 net4
*1891 net40
*1892 net400
*1893 net401
*1894 net402
*1895 net403
*1896 net404
*1897 net405
*1898 net406
*1899 net407
*1900 net408
*1901 net409
*1902 net41
*1903 net410
*1904 net411
*1905 net412
*1906 net413
*1907 net414
*1908 net415
*1909 net416
*1910 net417
*1911 net418
*1912 net419
*1913 net42
*1914 net420
*1915 net421
*1916 net422
*1917 net423
*1918 net424
*1919 net425
*1920 net426
*1921 net427
*1922 net428
*1923 net429
*1924 net43
*1925 net430
*1926 net431
*1927 net432
*1928 net433
*1929 net434
*1930 net435
*1931 net436
*1932 net437
*1933 net438
*1934 net439