*SPEF "ieee 1481-1999"
*DESIGN "multiplexer"
*DATE "11:11:11 Fri 11 11, 1111"
*VENDOR "OpenRCX"
*PROGRAM "Parallel Extraction"
*VERSION "1.0"
*DESIGN_FLOW "NAME_SCOPE LOCAL" "PIN_CAP NONE"
*DIVIDER /
*DELIMITER :
*BUS_DELIMITER []
*T_UNIT 1 NS
*C_UNIT 1 PF
*R_UNIT 1 OHM
*L_UNIT 1 HENRY

*NAME_MAP
*1 custom_settings[0]
*2 custom_settings[10]
*3 custom_settings[11]
*4 custom_settings[12]
*5 custom_settings[13]
*6 custom_settings[14]
*7 custom_settings[15]
*8 custom_settings[16]
*9 custom_settings[17]
*10 custom_settings[18]
*11 custom_settings[19]
*12 custom_settings[1]
*13 custom_settings[20]
*14 custom_settings[21]
*15 custom_settings[22]
*16 custom_settings[23]
*17 custom_settings[24]
*18 custom_settings[25]
*19 custom_settings[26]
*20 custom_settings[27]
*21 custom_settings[28]
*22 custom_settings[29]
*23 custom_settings[2]
*24 custom_settings[30]
*25 custom_settings[31]
*26 custom_settings[3]
*27 custom_settings[4]
*28 custom_settings[5]
*29 custom_settings[6]
*30 custom_settings[7]
*31 custom_settings[8]
*32 custom_settings[9]
*33 io_in_0
*34 net482
*35 io_oeb[10]
*36 io_oeb[11]
*37 io_oeb[12]
*38 io_oeb[13]
*39 io_oeb[14]
*40 io_oeb[15]
*41 io_oeb[16]
*42 io_oeb[17]
*43 io_oeb[18]
*44 io_oeb[19]
*45 io_oeb[1]
*46 io_oeb[20]
*47 io_oeb[21]
*48 io_oeb[22]
*49 io_oeb[23]
*50 io_oeb[24]
*51 io_oeb[25]
*52 io_oeb[26]
*53 io_oeb[27]
*54 io_oeb[28]
*55 io_oeb[29]
*56 io_oeb[2]
*57 io_oeb[30]
*58 io_oeb[31]
*59 io_oeb[32]
*60 io_oeb[33]
*61 io_oeb[34]
*62 io_oeb[35]
*63 io_oeb[36]
*64 io_oeb[37]
*65 net479
*66 io_oeb[4]
*67 io_oeb[5]
*68 io_oeb[6]
*69 io_oeb[7]
*70 io_oeb[8]
*71 io_oeb[9]
*72 io_oeb_scrapcpu[0]
*73 io_oeb_scrapcpu[10]
*74 io_oeb_scrapcpu[11]
*75 io_oeb_scrapcpu[12]
*76 io_oeb_scrapcpu[13]
*77 io_oeb_scrapcpu[14]
*78 io_oeb_scrapcpu[15]
*79 io_oeb_scrapcpu[16]
*80 io_oeb_scrapcpu[17]
*81 io_oeb_scrapcpu[18]
*82 io_oeb_scrapcpu[19]
*83 io_oeb_scrapcpu[1]
*84 io_oeb_scrapcpu[20]
*85 io_oeb_scrapcpu[21]
*86 io_oeb_scrapcpu[22]
*87 io_oeb_scrapcpu[23]
*88 io_oeb_scrapcpu[24]
*89 io_oeb_scrapcpu[25]
*90 io_oeb_scrapcpu[26]
*91 io_oeb_scrapcpu[27]
*92 io_oeb_scrapcpu[28]
*93 io_oeb_scrapcpu[29]
*94 io_oeb_scrapcpu[2]
*95 io_oeb_scrapcpu[30]
*96 io_oeb_scrapcpu[31]
*97 io_oeb_scrapcpu[32]
*98 io_oeb_scrapcpu[33]
*99 io_oeb_scrapcpu[34]
*100 io_oeb_scrapcpu[35]
*101 io_oeb_scrapcpu[3]
*102 io_oeb_scrapcpu[4]
*103 io_oeb_scrapcpu[5]
*104 io_oeb_scrapcpu[6]
*105 io_oeb_scrapcpu[7]
*106 io_oeb_scrapcpu[8]
*107 io_oeb_scrapcpu[9]
*108 io_oeb_vliw[0]
*109 io_oeb_vliw[10]
*110 io_oeb_vliw[11]
*111 io_oeb_vliw[12]
*112 io_oeb_vliw[13]
*113 io_oeb_vliw[14]
*114 io_oeb_vliw[15]
*115 io_oeb_vliw[16]
*116 io_oeb_vliw[17]
*117 io_oeb_vliw[18]
*118 io_oeb_vliw[19]
*119 io_oeb_vliw[1]
*120 io_oeb_vliw[20]
*121 io_oeb_vliw[21]
*122 io_oeb_vliw[22]
*123 io_oeb_vliw[23]
*124 io_oeb_vliw[24]
*125 io_oeb_vliw[25]
*126 io_oeb_vliw[26]
*127 io_oeb_vliw[27]
*128 io_oeb_vliw[28]
*129 io_oeb_vliw[29]
*130 io_oeb_vliw[2]
*131 io_oeb_vliw[30]
*132 io_oeb_vliw[31]
*133 io_oeb_vliw[32]
*134 io_oeb_vliw[33]
*135 io_oeb_vliw[34]
*136 io_oeb_vliw[35]
*137 io_oeb_vliw[3]
*138 io_oeb_vliw[4]
*139 io_oeb_vliw[5]
*140 io_oeb_vliw[6]
*141 io_oeb_vliw[7]
*142 io_oeb_vliw[8]
*143 io_oeb_vliw[9]
*144 io_oeb_z80[0]
*145 io_oeb_z80[10]
*146 io_oeb_z80[11]
*147 io_oeb_z80[12]
*148 io_oeb_z80[13]
*149 io_oeb_z80[14]
*150 io_oeb_z80[15]
*151 io_oeb_z80[16]
*152 io_oeb_z80[17]
*153 io_oeb_z80[18]
*154 io_oeb_z80[19]
*155 io_oeb_z80[1]
*156 io_oeb_z80[20]
*157 io_oeb_z80[21]
*158 io_oeb_z80[22]
*159 io_oeb_z80[23]
*160 io_oeb_z80[24]
*161 io_oeb_z80[25]
*162 io_oeb_z80[26]
*163 io_oeb_z80[27]
*164 io_oeb_z80[28]
*165 io_oeb_z80[29]
*166 io_oeb_z80[2]
*167 io_oeb_z80[30]
*168 io_oeb_z80[31]
*169 io_oeb_z80[32]
*170 io_oeb_z80[33]
*171 io_oeb_z80[34]
*172 io_oeb_z80[35]
*173 io_oeb_z80[3]
*174 io_oeb_z80[4]
*175 io_oeb_z80[5]
*176 io_oeb_z80[6]
*177 io_oeb_z80[7]
*178 io_oeb_z80[8]
*179 io_oeb_z80[9]
*180 net480
*181 io_out[10]
*182 io_out[11]
*183 io_out[12]
*184 io_out[13]
*185 io_out[14]
*186 io_out[15]
*187 io_out[16]
*188 io_out[17]
*189 io_out[18]
*190 io_out[19]
*191 io_out[1]
*192 io_out[20]
*193 io_out[21]
*194 io_out[22]
*195 io_out[23]
*196 io_out[24]
*197 io_out[25]
*198 io_out[26]
*199 io_out[27]
*200 io_out[28]
*201 io_out[29]
*202 io_out[2]
*203 io_out[30]
*204 io_out[31]
*205 io_out[32]
*206 io_out[33]
*207 io_out[34]
*208 io_out[35]
*209 io_out[36]
*210 io_out[37]
*211 io_out[3]
*212 io_out[4]
*213 io_out[5]
*214 io_out[6]
*215 io_out[7]
*216 io_out[8]
*217 io_out[9]
*218 io_out_scrapcpu[0]
*219 io_out_scrapcpu[10]
*220 io_out_scrapcpu[11]
*221 io_out_scrapcpu[12]
*222 io_out_scrapcpu[13]
*223 io_out_scrapcpu[14]
*224 io_out_scrapcpu[15]
*225 io_out_scrapcpu[16]
*226 io_out_scrapcpu[17]
*227 io_out_scrapcpu[18]
*228 io_out_scrapcpu[19]
*229 io_out_scrapcpu[1]
*230 io_out_scrapcpu[20]
*231 io_out_scrapcpu[21]
*232 io_out_scrapcpu[22]
*233 io_out_scrapcpu[23]
*234 io_out_scrapcpu[24]
*235 io_out_scrapcpu[25]
*236 io_out_scrapcpu[26]
*237 io_out_scrapcpu[27]
*238 io_out_scrapcpu[28]
*239 io_out_scrapcpu[29]
*240 io_out_scrapcpu[2]
*241 io_out_scrapcpu[30]
*242 io_out_scrapcpu[31]
*243 io_out_scrapcpu[32]
*244 io_out_scrapcpu[33]
*245 io_out_scrapcpu[34]
*246 io_out_scrapcpu[35]
*247 io_out_scrapcpu[3]
*248 io_out_scrapcpu[4]
*249 io_out_scrapcpu[5]
*250 io_out_scrapcpu[6]
*251 io_out_scrapcpu[7]
*252 io_out_scrapcpu[8]
*253 io_out_scrapcpu[9]
*254 io_out_vliw[0]
*255 io_out_vliw[10]
*256 io_out_vliw[11]
*257 io_out_vliw[12]
*258 io_out_vliw[13]
*259 io_out_vliw[14]
*260 io_out_vliw[15]
*261 io_out_vliw[16]
*262 io_out_vliw[17]
*263 io_out_vliw[18]
*264 io_out_vliw[19]
*265 io_out_vliw[1]
*266 io_out_vliw[20]
*267 io_out_vliw[21]
*268 io_out_vliw[22]
*269 io_out_vliw[23]
*270 io_out_vliw[24]
*271 io_out_vliw[25]
*272 io_out_vliw[26]
*273 io_out_vliw[27]
*274 io_out_vliw[28]
*275 io_out_vliw[29]
*276 io_out_vliw[2]
*277 io_out_vliw[30]
*278 io_out_vliw[31]
*279 io_out_vliw[32]
*280 io_out_vliw[33]
*281 io_out_vliw[34]
*282 io_out_vliw[35]
*283 io_out_vliw[3]
*284 io_out_vliw[4]
*285 io_out_vliw[5]
*286 io_out_vliw[6]
*287 io_out_vliw[7]
*288 io_out_vliw[8]
*289 io_out_vliw[9]
*290 io_out_z80[0]
*291 io_out_z80[10]
*292 io_out_z80[11]
*293 io_out_z80[12]
*294 io_out_z80[13]
*295 io_out_z80[14]
*296 io_out_z80[15]
*297 io_out_z80[16]
*298 io_out_z80[17]
*299 io_out_z80[18]
*300 io_out_z80[19]
*301 io_out_z80[1]
*302 io_out_z80[20]
*303 io_out_z80[21]
*304 io_out_z80[22]
*305 io_out_z80[23]
*306 io_out_z80[24]
*307 io_out_z80[25]
*308 io_out_z80[26]
*309 io_out_z80[27]
*310 io_out_z80[28]
*311 io_out_z80[29]
*312 io_out_z80[2]
*313 io_out_z80[30]
*314 io_out_z80[31]
*315 io_out_z80[32]
*316 io_out_z80[33]
*317 io_out_z80[34]
*318 io_out_z80[35]
*319 io_out_z80[3]
*320 io_out_z80[4]
*321 io_out_z80[5]
*322 io_out_z80[6]
*323 io_out_z80[7]
*324 io_out_z80[8]
*325 io_out_z80[9]
*326 net483
*327 la_data_out[10]
*328 la_data_out[11]
*329 la_data_out[12]
*330 la_data_out[13]
*331 la_data_out[14]
*332 la_data_out[15]
*333 la_data_out[16]
*334 la_data_out[17]
*335 la_data_out[18]
*336 la_data_out[19]
*337 la_data_out[1]
*338 la_data_out[20]
*339 la_data_out[21]
*340 la_data_out[22]
*341 la_data_out[23]
*342 la_data_out[24]
*343 la_data_out[25]
*344 la_data_out[26]
*345 la_data_out[27]
*346 la_data_out[28]
*347 la_data_out[29]
*348 la_data_out[2]
*349 la_data_out[30]
*350 la_data_out[31]
*351 la_data_out[32]
*352 la_data_out[33]
*353 la_data_out[34]
*354 la_data_out[35]
*355 la_data_out[36]
*356 la_data_out[37]
*357 la_data_out[38]
*358 la_data_out[39]
*359 net481
*360 la_data_out[4]
*361 la_data_out[5]
*362 la_data_out[6]
*363 la_data_out[7]
*364 la_data_out[8]
*365 la_data_out[9]
*366 rst_scrapcpu
*367 rst_vliw
*368 rst_z80
*371 wb_clk_i
*372 wb_rst_i
*373 wbs_ack_o
*374 wbs_adr_i[0]
*375 wbs_adr_i[10]
*376 wbs_adr_i[11]
*377 wbs_adr_i[12]
*378 wbs_adr_i[13]
*379 wbs_adr_i[14]
*380 wbs_adr_i[15]
*381 wbs_adr_i[16]
*382 wbs_adr_i[17]
*383 wbs_adr_i[18]
*384 wbs_adr_i[19]
*385 wbs_adr_i[1]
*386 wbs_adr_i[20]
*387 wbs_adr_i[21]
*388 wbs_adr_i[22]
*389 wbs_adr_i[23]
*390 wbs_adr_i[24]
*391 wbs_adr_i[25]
*392 wbs_adr_i[26]
*393 wbs_adr_i[27]
*394 wbs_adr_i[28]
*395 wbs_adr_i[29]
*396 wbs_adr_i[2]
*397 wbs_adr_i[30]
*398 wbs_adr_i[31]
*399 wbs_adr_i[3]
*400 wbs_adr_i[4]
*401 wbs_adr_i[5]
*402 wbs_adr_i[6]
*403 wbs_adr_i[7]
*404 wbs_adr_i[8]
*405 wbs_adr_i[9]
*406 wbs_cyc_i
*407 wbs_dat_i[0]
*408 wbs_dat_i[10]
*409 wbs_dat_i[11]
*410 wbs_dat_i[12]
*411 wbs_dat_i[13]
*412 wbs_dat_i[14]
*413 wbs_dat_i[15]
*414 wbs_dat_i[16]
*415 wbs_dat_i[17]
*416 wbs_dat_i[18]
*417 wbs_dat_i[19]
*418 wbs_dat_i[1]
*419 wbs_dat_i[20]
*420 wbs_dat_i[21]
*421 wbs_dat_i[22]
*422 wbs_dat_i[23]
*423 wbs_dat_i[24]
*424 wbs_dat_i[25]
*425 wbs_dat_i[26]
*426 wbs_dat_i[27]
*427 wbs_dat_i[28]
*428 wbs_dat_i[29]
*429 wbs_dat_i[2]
*430 wbs_dat_i[30]
*431 wbs_dat_i[31]
*432 wbs_dat_i[3]
*433 wbs_dat_i[4]
*434 wbs_dat_i[5]
*435 wbs_dat_i[6]
*436 wbs_dat_i[7]
*437 wbs_dat_i[8]
*438 wbs_dat_i[9]
*439 wbs_dat_o[0]
*440 wbs_dat_o[10]
*441 wbs_dat_o[11]
*442 wbs_dat_o[12]
*443 wbs_dat_o[13]
*444 wbs_dat_o[14]
*445 wbs_dat_o[15]
*446 wbs_dat_o[16]
*447 wbs_dat_o[17]
*448 wbs_dat_o[18]
*449 wbs_dat_o[19]
*450 wbs_dat_o[1]
*451 wbs_dat_o[20]
*452 wbs_dat_o[21]
*453 wbs_dat_o[22]
*454 wbs_dat_o[23]
*455 wbs_dat_o[24]
*456 wbs_dat_o[25]
*457 wbs_dat_o[26]
*458 wbs_dat_o[27]
*459 wbs_dat_o[28]
*460 wbs_dat_o[29]
*461 wbs_dat_o[2]
*462 wbs_dat_o[30]
*463 wbs_dat_o[31]
*464 wbs_dat_o[3]
*465 wbs_dat_o[4]
*466 wbs_dat_o[5]
*467 wbs_dat_o[6]
*468 wbs_dat_o[7]
*469 wbs_dat_o[8]
*470 wbs_dat_o[9]
*471 wbs_stb_i
*472 wbs_we_i
*473 _0000_
*474 _0001_
*475 _0002_
*476 _0003_
*477 _0004_
*478 _0005_
*479 _0006_
*480 _0007_
*481 _0008_
*482 _0009_
*483 _0010_
*484 _0011_
*485 _0012_
*486 _0013_
*487 _0014_
*488 _0015_
*489 _0016_
*490 _0017_
*491 _0018_
*492 _0019_
*493 _0020_
*494 _0021_
*495 _0022_
*496 _0023_
*497 _0024_
*498 _0025_
*499 _0026_
*500 _0027_
*501 _0028_
*502 _0029_
*503 _0030_
*504 _0031_
*505 _0032_
*506 _0033_
*507 _0034_
*508 _0035_
*509 _0036_
*510 _0037_
*511 _0038_
*512 _0039_
*513 _0040_
*514 _0041_
*515 _0042_
*516 _0043_
*517 _0044_
*518 _0045_
*519 _0046_
*520 _0047_
*521 _0048_
*522 _0049_
*523 _0050_
*524 _0051_
*525 _0052_
*526 _0053_
*527 _0054_
*528 _0055_
*529 _0056_
*530 _0057_
*531 _0058_
*532 _0059_
*533 _0060_
*534 _0061_
*535 _0062_
*536 _0063_
*537 _0064_
*538 _0065_
*539 _0066_
*540 _0067_
*541 _0068_
*542 _0069_
*543 _0070_
*544 _0071_
*545 _0072_
*546 _0073_
*547 _0074_
*548 _0075_
*549 _0076_
*550 _0077_
*551 _0078_
*552 _0079_
*553 _0080_
*554 _0081_
*555 _0082_
*556 _0083_
*557 _0084_
*558 _0085_
*559 _0086_
*560 _0087_
*561 _0088_
*562 _0089_
*563 _0090_
*564 _0091_
*565 _0092_
*566 _0093_
*567 _0094_
*568 _0095_
*569 _0096_
*570 _0097_
*571 _0098_
*572 _0099_
*573 _0100_
*574 _0101_
*575 _0102_
*576 _0103_
*577 _0104_
*578 _0105_
*579 _0106_
*580 _0107_
*581 _0108_
*582 _0109_
*583 _0110_
*584 _0111_
*585 _0112_
*586 _0113_
*587 _0114_
*588 _0115_
*589 _0116_
*590 _0117_
*591 _0118_
*592 _0119_
*593 _0120_
*594 _0121_
*595 _0122_
*596 _0123_
*597 _0124_
*598 _0125_
*599 _0126_
*600 _0127_
*601 _0128_
*602 _0129_
*603 _0130_
*604 _0131_
*605 _0132_
*606 _0133_
*607 _0134_
*608 _0135_
*609 _0136_
*610 _0137_
*611 _0138_
*612 _0139_
*613 _0140_
*614 _0141_
*615 _0142_
*616 _0143_
*617 _0144_
*618 _0145_
*619 _0146_
*620 _0147_
*621 _0148_
*622 _0149_
*623 _0150_
*624 _0151_
*625 _0152_
*626 _0153_
*627 _0154_
*628 _0155_
*629 _0156_
*630 _0157_
*631 _0158_
*632 _0159_
*633 _0160_
*634 _0161_
*635 _0162_
*636 _0163_
*637 _0164_
*638 _0165_
*639 _0166_
*640 _0167_
*641 _0168_
*642 _0169_
*643 _0170_
*644 _0171_
*645 _0172_
*646 _0173_
*647 _0174_
*648 _0175_
*649 _0176_
*650 _0177_
*651 _0178_
*652 _0179_
*653 _0180_
*654 _0181_
*655 _0182_
*656 _0183_
*657 _0184_
*658 _0185_
*659 _0186_
*660 _0187_
*661 _0188_
*662 _0189_
*663 _0190_
*664 _0191_
*665 _0192_
*666 _0193_
*667 _0194_
*668 _0195_
*669 _0196_
*670 _0197_
*671 _0198_
*672 _0199_
*673 _0200_
*674 _0201_
*675 _0202_
*676 _0203_
*677 _0204_
*678 _0205_
*679 _0206_
*680 _0207_
*681 _0208_
*682 _0209_
*683 _0210_
*684 _0211_
*685 _0212_
*686 _0213_
*687 _0214_
*688 _0215_
*689 _0216_
*690 _0217_
*691 _0218_
*692 _0219_
*693 _0220_
*694 _0221_
*695 _0222_
*696 _0223_
*697 _0224_
*698 _0225_
*699 _0226_
*700 _0227_
*701 _0228_
*702 _0229_
*703 _0230_
*704 _0231_
*705 _0232_
*706 _0233_
*707 _0234_
*708 _0235_
*709 _0236_
*710 _0237_
*711 _0238_
*712 _0239_
*713 _0240_
*714 _0241_
*715 _0242_
*716 _0243_
*717 _0244_
*718 _0245_
*719 _0246_
*720 _0247_
*721 _0248_
*722 _0249_
*723 _0250_
*724 _0251_
*725 _0252_
*726 _0253_
*727 _0254_
*728 _0255_
*729 _0256_
*730 _0257_
*731 _0258_
*732 _0259_
*733 _0260_
*734 _0261_
*735 _0262_
*736 _0263_
*737 _0264_
*738 _0265_
*739 _0266_
*740 _0267_
*741 _0268_
*742 _0269_
*743 _0270_
*744 _0271_
*745 _0272_
*746 _0273_
*747 _0274_
*748 _0275_
*749 _0276_
*750 _0277_
*751 _0278_
*752 _0279_
*753 _0280_
*754 _0281_
*755 _0282_
*756 _0283_
*757 _0284_
*758 _0285_
*759 _0286_
*760 _0287_
*761 _0288_
*762 _0289_
*763 _0290_
*764 _0291_
*765 _0292_
*766 _0293_
*767 _0294_
*768 _0295_
*769 _0296_
*770 _0297_
*771 _0298_
*772 _0299_
*773 _0300_
*774 _0301_
*775 _0302_
*776 _0303_
*777 _0304_
*778 _0305_
*779 _0306_
*780 _0307_
*781 _0308_
*782 _0309_
*783 _0310_
*784 _0311_
*785 _0312_
*786 _0313_
*787 _0314_
*788 _0315_
*789 _0316_
*790 _0317_
*791 _0318_
*792 _0319_
*793 _0320_
*794 _0321_
*795 _0322_
*796 _0323_
*797 _0324_
*798 _0325_
*799 _0326_
*800 _0327_
*801 _0328_
*802 _0329_
*803 _0330_
*804 _0331_
*805 _0332_
*806 _0333_
*807 _0334_
*808 _0335_
*809 _0336_
*810 _0337_
*811 _0338_
*812 _0339_
*813 _0340_
*814 _0341_
*815 _0342_
*816 _0343_
*817 _0344_
*818 _0345_
*819 _0346_
*820 _0347_
*821 _0348_
*822 _0349_
*823 _0350_
*824 _0351_
*825 _0352_
*826 _0353_
*827 _0354_
*828 _0355_
*829 _0356_
*830 _0357_
*831 _0358_
*832 _0359_
*833 _0360_
*834 _0361_
*835 _0362_
*836 _0363_
*837 _0364_
*838 _0365_
*839 _0366_
*840 _0367_
*841 _0368_
*842 _0369_
*843 _0370_
*844 _0371_
*845 _0372_
*846 _0373_
*847 _0374_
*848 _0375_
*849 _0376_
*850 _0377_
*851 _0378_
*852 _0379_
*853 _0380_
*854 _0381_
*855 _0382_
*856 _0383_
*857 _0384_
*858 _0385_
*859 _0386_
*860 _0387_
*861 _0388_
*862 _0389_
*863 _0390_
*864 _0391_
*865 _0392_
*866 _0393_
*867 _0394_
*868 _0395_
*869 clknet_0_wb_clk_i
*870 clknet_3_0_0_wb_clk_i
*871 clknet_3_1_0_wb_clk_i
*872 clknet_3_2_0_wb_clk_i
*873 clknet_3_3_0_wb_clk_i
*874 clknet_3_4_0_wb_clk_i
*875 clknet_3_5_0_wb_clk_i
*876 clknet_3_6_0_wb_clk_i
*877 clknet_3_7_0_wb_clk_i
*878 clknet_4_0__leaf_wb_clk_i
*879 clknet_4_10__leaf_wb_clk_i
*880 clknet_4_11__leaf_wb_clk_i
*881 clknet_4_12__leaf_wb_clk_i
*882 clknet_4_13__leaf_wb_clk_i
*883 clknet_4_14__leaf_wb_clk_i
*884 clknet_4_15__leaf_wb_clk_i
*885 clknet_4_1__leaf_wb_clk_i
*886 clknet_4_2__leaf_wb_clk_i
*887 clknet_4_3__leaf_wb_clk_i
*888 clknet_4_4__leaf_wb_clk_i
*889 clknet_4_5__leaf_wb_clk_i
*890 clknet_4_6__leaf_wb_clk_i
*891 clknet_4_7__leaf_wb_clk_i
*892 clknet_4_8__leaf_wb_clk_i
*893 clknet_4_9__leaf_wb_clk_i
*894 design_select\[0\]
*895 design_select\[1\]
*896 design_select\[2\]
*897 design_select\[3\]
*898 net1
*899 net10
*900 net100
*901 net101
*902 net102
*903 net103
*904 net104
*905 net105
*906 net106
*907 net107
*908 net108
*909 net109
*910 net11
*911 net110
*912 net111
*913 net112
*914 net113
*915 net114
*916 net115
*917 net116
*918 net117
*919 net118
*920 net119
*921 net12
*922 net120
*923 net121
*924 net122
*925 net123
*926 net124
*927 net125
*928 net126
*929 net127
*930 net128
*931 net129
*932 net13
*933 net130
*934 net131
*935 net132
*936 net133
*937 net134
*938 net135
*939 net136
*940 net137
*941 net138
*942 net139
*943 net14
*944 net140
*945 net141
*946 net142
*947 net143
*948 net144
*949 net145
*950 net146
*951 net147
*952 net148
*953 net149
*954 net15
*955 net150
*956 net151
*957 net152
*958 net153
*959 net154
*960 net155
*961 net156
*962 net157
*963 net158
*964 net159
*965 net16
*966 net160
*967 net161
*968 net162
*969 net163
*970 net164
*971 net165
*972 net166
*973 net167
*974 net168
*975 net169
*976 net17
*977 net170
*978 net171
*979 net172
*980 net173
*981 net174
*982 net175
*983 net176
*984 net177
*985 net178
*986 net179
*987 net18
*988 net180
*989 net181
*990 net182
*991 net183
*992 net184
*993 net185
*994 net186
*995 net187
*996 net188
*997 net189
*998 net19
*999 net190
*1000 net191
*1001 net192
*1002 net193
*1003 net194
*1004 net195
*1005 net196
*1006 net197
*1007 net198
*1008 net199
*1009 net2
*1010 net20
*1011 net200
*1012 net201
*1013 net202
*1014 net203
*1015 net204
*1016 net205
*1017 net206
*1018 net207
*1019 net208
*1020 net209
*1021 net21
*1022 net210
*1023 net211
*1024 net212
*1025 net213
*1026 net214
*1027 net215
*1028 net216
*1029 net217
*1030 net218
*1031 net219
*1032 net22
*1033 net220
*1034 net221
*1035 net222
*1036 net223
*1037 net224
*1038 net225
*1039 net226
*1040 net227
*1041 net228
*1042 net229
*1043 net23
*1044 net230
*1045 net231
*1046 net232
*1047 net233
*1048 net234
*1049 net235
*1050 net236
*1051 net237
*1052 net238
*1053 net239
*1054 net24
*1055 net240
*1056 net241
*1057 net242
*1058 net243
*1059 net244
*1060 net245
*1061 net246
*1062 net247
*1063 net248
*1064 net249
*1065 net25
*1066 net250
*1067 net251
*1068 net252
*1069 net253
*1070 net254
*1071 net255
*1072 net256
*1073 net257
*1074 net258
*1075 net259
*1076 net26
*1077 net260
*1078 net261
*1079 net262
*1080 net263
*1081 net264
*1082 net265
*1083 net266
*1084 net267
*1085 net268
*1086 net269
*1087 net27
*1088 net270
*1089 net271
*1090 net272
*1091 net273
*1092 net274
*1093 net275
*1094 net276
*1095 net277
*1096 net278
*1097 net279
*1098 net28
*1099 net280
*1100 net281
*1101 net282
*1102 net283
*1103 net284
*1104 net285
*1105 net286
*1106 net287
*1107 net288
*1108 net289
*1109 net29
*1110 net290
*1111 net291
*1112 net292
*1113 net293
*1114 net294
*1115 net295
*1116 net296
*1117 net297
*1118 net298
*1119 net299
*1120 net3
*1121 net30
*1122 net300
*1123 net301
*1124 net302
*1125 net303
*1126 net304
*1127 net305
*1128 net306
*1129 net307
*1130 net308
*1131 net309
*1132 net31
*1133 net310
*1134 net311
*1135 net312
*1136 net313
*1137 net314
*1138 net315
*1139 net316
*1140 net317
*1141 net318
*1142 net319
*1143 net32
*1144 net320
*1145 net321
*1146 net322
*1147 net323
*1148 net324
*1149 net325
*1150 net326
*1151 net327
*1152 net328
*1153 net329
*1154 net33
*1155 net330
*1156 net331
*1157 net332
*1158 net333
*1159 net334
*1160 net335
*1161 net336
*1162 net337
*1163 net338
*1164 net339
*1165 net34
*1166 net340
*1167 net341
*1168 net342
*1169 net343
*1170 net344
*1171 net345
*1172 net346
*1173 net347
*1174 net348
*1175 net349
*1176 net35
*1177 net350
*1178 net351
*1179 net352
*1180 net353
*1181 net354
*1182 net355
*1183 net356
*1184 net357
*1185 net358
*1186 net359
*1187 net36
*1188 net360
*1189 net361
*1190 net362
*1191 net363
*1192 net364
*1193 net365
*1194 net366
*1195 net367
*1196 net368
*1197 net369
*1198 net37
*1199 net370
*1200 net371
*1201 net372
*1202 net373
*1203 net374
*1204 net375
*1205 net376
*1206 net377
*1207 net378
*1208 net379
*1209 net38
*1210 net380
*1211 net381
*1212 net382
*1213 net383
*1214 net384
*1215 net385
*1216 net386
*1217 net387
*1218 net388
*1219 net389
*1220 net39
*1221 net390
*1222 net391
*1223 net392
*1224 net393
*1225 net394
*1226 net395
*1227 net396
*1228 net397
*1229 net398
*1230 net399
*1231 net4
*1232 net40
*1233 net400
*1234 net401
*1235 net402
*1236 net403
*1237 net404
*1238 net405
*1239 net406
*1240 net407
*1241 net408
*1242 net409
*1243 net41
*1244 net410
*1245 net411
*1246 net412
*1247 net413
*1248 net414
*1249 net415
*1250 net416
*1251 net417
*1252 net418
*1253 net419
*1254 net42
*1255 net420
*1256 net421
*1257 net422
*1258 net423
*1259 net424
*1260 net425
*1261 net426
*1262 net427
*1263 net428
*1264 net429
*1265 net43
*1266 net430
*1267 net431
*1268 net432
*1269 net433
*1270 net434
*1271 net435
*1272 net436
*1273 net437
*1274 net438
*1275 net439
*1276 net44
*1277 net440
*1278 net441
*1279 net442
*1280 net443
*1281 net444
*1282 net445
*1283 net446
*1284 net447
*1285 net448
*1286 net449
*1287 net45
*1288 net450
*1289 net451
*1290 net452
*1291 net453
*1292 net454
*1293 net455
*1294 net456
*1295 net457
*1296 net458
*1297 net459
*1298 net46
*1299 net460
*1300 net461
*1301 net462
*1302 net463
*1303 net464
*1304 net465
*1305 net466
*1306 net467
*1307 net468
*1308 net469
*1309 net47
*1310 net470
*1311 net471
*1312 net472
*1313 net473
*1314 net474
*1315 net475
*1316 net476
*1317 net477
*1318 net478
*1319 net48
*1320 net484
*1321 net485
*1322 net486
*1323 net487
*1324 net488
*1325 net489
*1326 net49
*1327 net490
*1328 net491
*1329 net492
*1330 net493
*1331 net494
*1332 net495
*1333 net496
*1334 net497
*1335 net498
*1336 net499
*1337 net5
*1338 net50
*1339 net500
*1340 net501
*1341 net502
*1342 net503
*1343 net504
*1344 net505
*1345 net506
*1346 net507
*1347 net508
*1348 net509
*1349 net51
*1350 net510
*1351 net511
*1352 net512
*1353 net513
*1354 net514
*1355 net515
*1356 net516
*1357 net517
*1358 net518
*1359 net519
*1360 net52
*1361 net520
*1362 net521
*1363 net522
*1364 net523
*1365 net524
*1366 net525
*1367 net526
*1368 net527
*1369 net528
*1370 net529
*1371 net53
*1372 net530
*1373 net531
*1374 net532
*1375 net533
*1376 net534
*1377 net535
*1378 net536
*1379 net537
*1380 net538
*1381 net539
*1382 net54
*1383 net540
*1384 net541
*1385 net542
*1386 net543
*1387 net544
*1388 net545
*1389 net546
*1390 net547
*1391 net548
*1392 net549
*1393 net55
*1394 net550
*1395 net551
*1396 net552
*1397 net553
*1398 net554
*1399 net555
*1400 net556
*1401 net557
*1402 net558
*1403 net559
*1404 net56
*1405 net560
*1406 net561
*1407 net562
*1408 net563
*1409 net564
*1410 net565
*1411 net566
*1412 net567
*1413 net568
*1414 net569
*1415 net57
*1416 net570
*1417 net571
*1418 net572
*1419 net573
*1420 net574
*1421 net575
*1422 net576
*1423 net577
*1424 net578
*1425 net579
*1426 net58
*1427 net580
*1428 net581
*1429 net582
*1430 net583
*1431 net584
*1432 net585
*1433 net586
*1434 net587
*1435 net588
*1436 net589
*1437 net59
*1438 net590
*1439 net591
*1440 net592
*1441 net593
*1442 net594
*1443 net595
*1444 net596
*1445 net597
*1446 net598
*1447 net599
*1448 net6
*1449 net60
*1450 net600
*1451 net601
*1452 net602
*1453 net603
*1454 net604
*1455 net605
*1456 net606
*1457 net607
*1458 net608
*1459 net609
*1460 net61
*1461 net610
*1462 net611
*1463 net612
*1464 net613
*1465 net614
*1466 net615
*1467 net616
*1468 net617
*1469 net618
*1470 net619
*1471 net62
*1472 net620
*1473 net621
*1474 net622
*1475 net623
*1476 net624
*1477 net625
*1478 net626
*1479 net627
*1480 net628
*1481 net629
*1482 net63
*1483 net630
*1484 net631
*1485 net632
*1486 net633
*1487 net634
*1488 net635
*1489 net636
*1490 net637
*1491 net638
*1492 net639
*1493 net64
*1494 net640
*1495 net641
*1496 net642
*1497 net643
*1498 net644
*1499 net645
*1500 net646
*1501 net647
*1502 net648
*1503 net649
*1504 net65
*1505 net650
*1506 net651
*1507 net652
*1508 net653
*1509 net654
*1510 net655
*1511 net656
*1512 net657
*1513 net658
*1514 net659
*1515 net66
*1516 net660
*1517 net661
*1518 net662
*1519 net663
*1520 net664
*1521 net665
*1522 net666
*1523 net667
*1524 net668
*1525 net669
*1526 net67
*1527 net670
*1528 net671
*1529 net672
*1530 net673
*1531 net674
*1532 net675
*1533 net676
*1534 net677
*1535 net678
*1536 net679
*1537 net68
*1538 net680
*1539 net681
*1540 net682
*1541 net683
*1542 net684
*1543 net685
*1544 net686
*1545 net687
*1546 net688
*1547 net689
*1548 net69
*1549 net690
*1550 net691
*1551 net692
*1552 net693
*1553 net694
*1554 net695
*1555 net696
*1556 net697
*1557 net698
*1558 net699
*1559 net7
*1560 net70
*1561 net700
*1562 net701
*1563 net702
*1564 net703
*1565 net704
*1566 net705
*1567 net706
*1568 net707
*1569 net708
*1570 net709
*1571 net71
*1572 net710
*1573 net711
*1574 net712
*1575 net713
*1576 net714
*1577 net715
*1578 net716
*1579 net717
*1580 net718
*1581 net719
*1582 net72
*1583 net720
*1584 net721
*1585 net722
*1586 net723
*1587 net724
*1588 net725
*1589 net726
*1590 net727
*1591 net728
*1592 net729
*1593 net73
*1594 net730
*1595 net731
*1596 net732
*1597 net733
*1598 net734
*1599 net735
*1600 net736
*1601 net737
*1602 net738
*1603 net739
*1604 net74
*1605 net740
*1606 net741
*1607 net742
*1608 net743
*1609 net744
*1610 net745
*1611 net746
*1612 net747
*1613 net748
*1614 net749
*1615 net75
*1616 net750
*1617 net751
*1618 net752
*1619 net753
*1620 net754
*1621 net755
*1622 net756
*1623 net757
*1624 net758
*1625 net759
*1626 net76
*1627 net760
*1628 net761
*1629 net762
*1630 net763
*1631 net764
*1632 net765
*1633 net766
*1634 net767
*1635 net768
*1636 net769
*1637 net77
*1638 net770
*1639 net771
*1640 net772
*1641 net773
*1642 net774
*1643 net775
*1644 net776
*1645 net777
*1646 net778
*1647 net779
*1648 net78
*1649 net780
*1650 net781
*1651 net782
*1652 net783
*1653 net784
*1654 net785
*1655 net786
*1656 net787
*1657 net788
*1658 net789
*1659 net79
*1660 net790
*1661 net791
*1662 net792
*1663 net793
*1664 net794
*1665 net795
*1666 net796
*1667 net797
*1668 net798
*1669 net799
*1670 net8
*1671 net80
*1672 net800
*1673 net801
*1674 net802
*1675 net803
*1676 net804
*1677 net805
*1678 net806
*1679 net807
*1680 net808
*1681 net809
*1682 net81
*1683 net810
*1684 net811
*1685 net812
*1686 net813
*1687 net814
*1688 net815
*1689 net816
*1690 net817
*1691 net818
*1692 net819
*1693 net82
*1694 net820
*1695 net821
*1696 net822
*1697 net823
*1698 net824
*1699 net825
*1700 net826
*1701 net827
*1702 net828
*1703 net829
*1704 net83
*1705 net830
*1706 net831
*1707 net832
*1708 net833
*1709 net834
*1710 net835
*1711 net836
*1712 net837
*1713 net838
*1714 net839
*1715 net84
*1716 net840
*1717 net841
*1718 net842
*1719 net843
*1720 net844
*1721 net845
*1722 net846
*1723 net847
*1724 net848
*1725 net849
*1726 net85
*1727 net850
*1728 net851
*1729 net852
*1730 net853
*1731 net854
*1732 net855
*1733 net856
*1734 net857
*1735 net858
*1736 net859
*1737 net86
*1738 net860
*1739 net861
*1740 net862
*1741 net863
*1742 net864
*1743 net865
*1744 net866
*1745 net867
*1746 net868
*1747 net869
*1748 net87
*1749 net870
*1750 net871
*1751 net872
*1752 net873
*1753 net874
*1754 net875
*1755 net876
*1756 net877
*1757 net878
*1758 net879
*1759 net88
*1760 net880
*1761 net881
*1762 net882
*1763 net883
*1764 net884
*1765 net885
*1766 net886
*1767 net887
*1768 net888
*1769 net889
*1770 net89
*1771 net890
*1772 net891
*1773 net892
*1774 net893
*1775 net894
*1776 net895
*1777 net896
*1778 net897
*1779 net898
*1780 net899
*1781 net9
*1782 net90
*1783 net900
*1784 net901
*1785 net902
*1786 net903
*1787 net904
*1788 net905
*1789 net906
*1790 net907
*1791 net908
*1792 net909
*1793 net91
*1794 net910
*1795 net911
*1796 net912
*1797 net913
*1798 net914
*1799 net915
*1800 net916
*1801 net917
*1802 net918
*1803 net919
*1804 net92
*1805 net920
*1806 net921
*1807 net922
*1808 net923
*1809 net924
*1810 net925
*1811 net926
*1812 net927
*1813 net928
*1814 net929
*1815 net93
*1816 net930
*1817 net931
*1818 net932
*1819 net933
*1820 net934
*1821 net935
*1822 net936
*1823 net937
*1824 net938
*1825 net939
*1826 net94
*1827 net940
*1828 net941
*1829 net942
*1830 net95
*1831 net96
*1832 net97
*1833 net98
*1834 net99
*1835 wb_counter\[0\]
*1836 wb_counter\[10\]
*1837 wb_counter\[11\]
*1838 wb_counter\[12\]
*1839 wb_counter\[13\]
*1840 wb_counter\[14\]
*1841 wb_counter\[15\]
*1842 wb_counter\[16\]
*1843 wb_counter\[17\]
*1844 wb_counter\[18\]
*1845 wb_counter\[19\]
*1846 wb_counter\[1\]
*1847 wb_counter\[20\]
*1848 wb_counter\[21\]
*1849 wb_counter\[22\]
*1850 wb_counter\[23\]
*1851 wb_counter\[24\]
*1852 wb_counter\[26\]
*1853 wb_counter\[27\]
*1854 wb_counter\[28\]
*1855 wb_counter\[29\]
*1856 wb_counter\[2\]
*1857 wb_counter\[30\]
*1858 wb_counter\[31\]
*1859 wb_counter\[3\]
*1860 wb_counter\[4\]
*1861 wb_counter\[5\]
*1862 wb_counter\[6\]
*1863 wb_counter\[7\]
*1864 wb_counter\[8\]
*1865 wb_counter\[9\]
*1866 wb_feedback_delay
*1867 wb_override_act
*1868 wb_rst_override
*1869 wbs_adr_delaybuff\[0\]
*1870 wbs_adr_delaybuff\[1\]
*1871 wbs_adr_delaybuff\[2\]
*1872 wbs_adr_delaybuff\[3\]
*1873 wbs_dat_delaybuff\[0\]
*1874 wbs_dat_delaybuff\[10\]
*1875 wbs_dat_delaybuff\[11\]
*1876 wbs_dat_delaybuff\[12\]
*1877 wbs_dat_delaybuff\[13\]
*1878 wbs_dat_delaybuff\[14\]
*1879 wbs_dat_delaybuff\[15\]
*1880 wbs_dat_delaybuff\[16\]
*1881 wbs_dat_delaybuff\[17\]
*1882 wbs_dat_delaybuff\[18\]
*1883 wbs_dat_delaybuff\[19\]
*1884 wbs_dat_delaybuff\[1\]
*1885 wbs_dat_delaybuff\[20\]
*1886 wbs_dat_delaybuff\[21\]
*1887 wbs_dat_delaybuff\[22\]
*1888 wbs_dat_delaybuff\[23\]
*1889 wbs_dat_delaybuff\[24\]
*1890 wbs_dat_delaybuff\[25\]
*1891 wbs_dat_delaybuff\[26\]
*1892 wbs_dat_delaybuff\[27\]
*1893 wbs_dat_delaybuff\[28\]
*1894 wbs_dat_delaybuff\[29\]
*1895 wbs_dat_delaybuff\[2\]
*1896 wbs_dat_delaybuff\[30\]
*1897 wbs_dat_delaybuff\[31\]
*1898 wbs_dat_delaybuff\[3\]
*1899 wbs_dat_delaybuff\[4\]
*1900 wbs_dat_delaybuff\[5\]
*1901 wbs_dat_delaybuff\[6\]
*1902 wbs_dat_delaybuff\[7\]
*1903 wbs_dat_delaybuff\[8\]
*1904 wbs_dat_delaybuff\[9\]
*1905 ANTENNA_1
*1906 ANTENNA_2
*1907 ANTENNA_3
*1908 ANTENNA_4
*1909 ANTENNA__0396__A
*1910 ANTENNA__0397__A0
*1911 ANTENNA__0399__A_N
*1912 ANTENNA__0399__B
*1913 ANTENNA__0399__C
*1914 ANTENNA__0400__A
*1915 ANTENNA__0400__B
*1916 ANTENNA__0401__A_N
*1917 ANTENNA__0401__B
*1918 ANTENNA__0401__C
*1919 ANTENNA__0402__A
*1920 ANTENNA__0402__B
*1921 ANTENNA__0403__A
*1922 ANTENNA__0403__B
*1923 ANTENNA__0403__C
*1924 ANTENNA__0404__A
*1925 ANTENNA__0404__B
*1926 ANTENNA__0405__A1
*1927 ANTENNA__0405__A2
*1928 ANTENNA__0405__B1
*1929 ANTENNA__0450__A2
*1930 ANTENNA__0450__B1
*1931 ANTENNA__0452__A2
*1932 ANTENNA__0452__B1
*1933 ANTENNA__0454__A2
*1934 ANTENNA__0454__B1
*1935 ANTENNA__0456__A2
*1936 ANTENNA__0456__B1
*1937 ANTENNA__0458__A2
*1938 ANTENNA__0458__B1
*1939 ANTENNA__0460__A2
*1940 ANTENNA__0460__B1
*1941 ANTENNA__0460__B2
*1942 ANTENNA__0461__A2
*1943 ANTENNA__0461__B1
*1944 ANTENNA__0462__A1
*1945 ANTENNA__0462__A2
*1946 ANTENNA__0462__B1
*1947 ANTENNA__0462__B2