*SPEF "ieee 1481-1999"
*DESIGN "scrapcpu"
*DATE "11:11:11 Fri 11 11, 1111"
*VENDOR "OpenRCX"
*PROGRAM "Parallel Extraction"
*VERSION "1.0"
*DESIGN_FLOW "NAME_SCOPE LOCAL" "PIN_CAP NONE"
*DIVIDER /
*DELIMITER :
*BUS_DELIMITER []
*T_UNIT 1 NS
*C_UNIT 1 PF
*R_UNIT 1 OHM
*L_UNIT 1 HENRY

*NAME_MAP
*1 io_in[0]
*2 io_in[10]
*3 io_in[11]
*4 io_in[12]
*5 io_in[13]
*6 io_in[14]
*7 io_in[15]
*8 io_in[16]
*9 io_in[17]
*10 io_in[18]
*11 io_in[19]
*12 io_in[1]
*13 io_in[20]
*14 io_in[21]
*15 io_in[22]
*16 io_in[23]
*17 io_in[24]
*18 io_in[25]
*19 io_in[26]
*20 io_in[27]
*21 io_in[28]
*22 io_in[29]
*23 io_in[2]
*24 io_in[30]
*25 io_in[31]
*26 io_in[32]
*27 io_in[33]
*28 io_in[34]
*29 io_in[35]
*30 io_in[3]
*31 io_in[4]
*32 io_in[5]
*33 io_in[6]
*34 io_in[7]
*35 io_in[8]
*36 io_in[9]
*37 net158
*38 io_oeb[10]
*39 io_oeb[11]
*40 io_oeb[12]
*41 io_oeb[13]
*42 io_oeb[14]
*43 io_oeb[15]
*44 io_oeb[16]
*45 io_oeb[17]
*46 io_oeb[18]
*47 io_oeb[19]
*48 net159
*49 io_oeb[20]
*50 net163
*51 net164
*52 net165
*53 net166
*54 net167
*55 net168
*56 net169
*57 net170
*58 net178
*59 net160
*60 net171
*61 io_oeb[31]
*62 io_oeb[32]
*63 io_oeb[33]
*64 io_oeb[34]
*65 io_oeb[35]
*66 io_oeb[3]
*67 io_oeb[4]
*68 io_oeb[5]
*69 io_oeb[6]
*70 net161
*71 net162
*72 io_oeb[9]
*73 io_out[0]
*74 io_out[10]
*75 io_out[11]
*76 io_out[12]
*77 io_out[13]
*78 io_out[14]
*79 io_out[15]
*80 io_out[16]
*81 io_out[17]
*82 io_out[18]
*83 io_out[19]
*84 io_out[1]
*85 io_out[20]
*86 io_out[21]
*87 io_out[22]
*88 io_out[23]
*89 io_out[24]
*90 io_out[25]
*91 io_out[26]
*92 io_out[27]
*93 io_out[28]
*94 net172
*95 io_out[2]
*96 io_out[30]
*97 net173
*98 net174
*99 net175
*100 net176
*101 net177
*102 io_out[3]
*103 io_out[4]
*104 io_out[5]
*105 io_out[6]
*106 io_out[7]
*107 io_out[8]
*108 io_out[9]
*109 rst_n
*112 wb_clk_i
*113 A\[0\]
*114 A\[1\]
*115 A\[2\]
*116 A\[3\]
*117 A\[4\]
*118 A\[5\]
*119 B\[0\]
*120 B\[1\]
*121 B\[2\]
*122 B\[3\]
*123 B\[4\]
*124 B\[5\]
*125 MAR\[0\]
*126 MAR\[1\]
*127 MAR\[2\]
*128 MAR\[3\]
*129 MAR\[4\]
*130 PC\[0\]
*131 PC\[1\]
*132 PC\[2\]
*133 PC\[3\]
*134 PC\[4\]
*135 PC\[5\]
*136 PC\[6\]
*137 P\[0\]
*138 P\[1\]
*139 P\[2\]
*140 P\[3\]
*141 P\[4\]
*142 P\[5\]
*143 RAM\[0\]\[0\]
*144 RAM\[0\]\[1\]
*145 RAM\[0\]\[2\]
*146 RAM\[0\]\[3\]
*147 RAM\[0\]\[4\]
*148 RAM\[0\]\[5\]
*149 RAM\[10\]\[0\]
*150 RAM\[10\]\[1\]
*151 RAM\[10\]\[2\]
*152 RAM\[10\]\[3\]
*153 RAM\[10\]\[4\]
*154 RAM\[10\]\[5\]
*155 RAM\[11\]\[0\]
*156 RAM\[11\]\[1\]
*157 RAM\[11\]\[2\]
*158 RAM\[11\]\[3\]
*159 RAM\[11\]\[4\]
*160 RAM\[11\]\[5\]
*161 RAM\[12\]\[0\]
*162 RAM\[12\]\[1\]
*163 RAM\[12\]\[2\]
*164 RAM\[12\]\[3\]
*165 RAM\[12\]\[4\]
*166 RAM\[12\]\[5\]
*167 RAM\[13\]\[0\]
*168 RAM\[13\]\[1\]
*169 RAM\[13\]\[2\]
*170 RAM\[13\]\[3\]
*171 RAM\[13\]\[4\]
*172 RAM\[13\]\[5\]
*173 RAM\[14\]\[0\]
*174 RAM\[14\]\[1\]
*175 RAM\[14\]\[2\]
*176 RAM\[14\]\[3\]
*177 RAM\[14\]\[4\]
*178 RAM\[14\]\[5\]
*179 RAM\[15\]\[0\]
*180 RAM\[15\]\[1\]
*181 RAM\[15\]\[2\]
*182 RAM\[15\]\[3\]
*183 RAM\[15\]\[4\]
*184 RAM\[15\]\[5\]
*185 RAM\[16\]\[0\]
*186 RAM\[16\]\[1\]
*187 RAM\[16\]\[2\]
*188 RAM\[16\]\[3\]
*189 RAM\[16\]\[4\]
*190 RAM\[16\]\[5\]
*191 RAM\[17\]\[0\]
*192 RAM\[17\]\[1\]
*193 RAM\[17\]\[2\]
*194 RAM\[17\]\[3\]
*195 RAM\[17\]\[4\]
*196 RAM\[17\]\[5\]
*197 RAM\[18\]\[0\]
*198 RAM\[18\]\[1\]
*199 RAM\[18\]\[2\]
*200 RAM\[18\]\[3\]
*201 RAM\[18\]\[4\]
*202 RAM\[18\]\[5\]
*203 RAM\[19\]\[0\]
*204 RAM\[19\]\[1\]
*205 RAM\[19\]\[2\]
*206 RAM\[19\]\[3\]
*207 RAM\[19\]\[4\]
*208 RAM\[19\]\[5\]
*209 RAM\[1\]\[0\]
*210 RAM\[1\]\[1\]
*211 RAM\[1\]\[2\]
*212 RAM\[1\]\[3\]
*213 RAM\[1\]\[4\]
*214 RAM\[1\]\[5\]
*215 RAM\[20\]\[0\]
*216 RAM\[20\]\[1\]
*217 RAM\[20\]\[2\]
*218 RAM\[20\]\[3\]
*219 RAM\[20\]\[4\]
*220 RAM\[20\]\[5\]
*221 RAM\[21\]\[0\]
*222 RAM\[21\]\[1\]
*223 RAM\[21\]\[2\]
*224 RAM\[21\]\[3\]
*225 RAM\[21\]\[4\]
*226 RAM\[21\]\[5\]
*227 RAM\[22\]\[0\]
*228 RAM\[22\]\[1\]
*229 RAM\[22\]\[2\]
*230 RAM\[22\]\[3\]
*231 RAM\[22\]\[4\]
*232 RAM\[22\]\[5\]
*233 RAM\[23\]\[0\]
*234 RAM\[23\]\[1\]
*235 RAM\[23\]\[2\]
*236 RAM\[23\]\[3\]
*237 RAM\[23\]\[4\]
*238 RAM\[23\]\[5\]
*239 RAM\[24\]\[0\]
*240 RAM\[24\]\[1\]
*241 RAM\[24\]\[2\]
*242 RAM\[24\]\[3\]
*243 RAM\[24\]\[4\]
*244 RAM\[24\]\[5\]
*245 RAM\[25\]\[0\]
*246 RAM\[25\]\[1\]
*247 RAM\[25\]\[2\]
*248 RAM\[25\]\[3\]
*249 RAM\[25\]\[4\]
*250 RAM\[25\]\[5\]
*251 RAM\[26\]\[0\]
*252 RAM\[26\]\[1\]
*253 RAM\[26\]\[2\]
*254 RAM\[26\]\[3\]
*255 RAM\[26\]\[4\]
*256 RAM\[26\]\[5\]
*257 RAM\[27\]\[0\]
*258 RAM\[27\]\[1\]
*259 RAM\[27\]\[2\]
*260 RAM\[27\]\[3\]
*261 RAM\[27\]\[4\]
*262 RAM\[27\]\[5\]
*263 RAM\[28\]\[0\]
*264 RAM\[28\]\[1\]
*265 RAM\[28\]\[2\]
*266 RAM\[28\]\[3\]
*267 RAM\[28\]\[4\]
*268 RAM\[28\]\[5\]
*269 RAM\[29\]\[0\]
*270 RAM\[29\]\[1\]
*271 RAM\[29\]\[2\]
*272 RAM\[29\]\[3\]
*273 RAM\[29\]\[4\]
*274 RAM\[29\]\[5\]
*275 RAM\[2\]\[0\]
*276 RAM\[2\]\[1\]
*277 RAM\[2\]\[2\]
*278 RAM\[2\]\[3\]
*279 RAM\[2\]\[4\]
*280 RAM\[2\]\[5\]
*281 RAM\[30\]\[0\]
*282 RAM\[30\]\[1\]
*283 RAM\[30\]\[2\]
*284 RAM\[30\]\[3\]
*285 RAM\[30\]\[4\]
*286 RAM\[30\]\[5\]
*287 RAM\[31\]\[0\]
*288 RAM\[31\]\[1\]
*289 RAM\[31\]\[2\]
*290 RAM\[31\]\[3\]
*291 RAM\[31\]\[4\]
*292 RAM\[31\]\[5\]
*293 RAM\[32\]\[0\]
*294 RAM\[32\]\[1\]
*295 RAM\[32\]\[2\]
*296 RAM\[32\]\[3\]
*297 RAM\[32\]\[4\]
*298 RAM\[32\]\[5\]
*299 RAM\[33\]\[0\]
*300 RAM\[33\]\[1\]
*301 RAM\[33\]\[2\]
*302 RAM\[33\]\[3\]
*303 RAM\[33\]\[4\]
*304 RAM\[33\]\[5\]
*305 RAM\[34\]\[0\]
*306 RAM\[34\]\[1\]
*307 RAM\[34\]\[2\]
*308 RAM\[34\]\[3\]
*309 RAM\[34\]\[4\]
*310 RAM\[34\]\[5\]
*311 RAM\[35\]\[0\]
*312 RAM\[35\]\[1\]
*313 RAM\[35\]\[2\]
*314 RAM\[35\]\[3\]
*315 RAM\[35\]\[4\]
*316 RAM\[35\]\[5\]
*317 RAM\[36\]\[0\]
*318 RAM\[36\]\[1\]
*319 RAM\[36\]\[2\]
*320 RAM\[36\]\[3\]
*321 RAM\[36\]\[4\]
*322 RAM\[36\]\[5\]
*323 RAM\[37\]\[0\]
*324 RAM\[37\]\[1\]
*325 RAM\[37\]\[2\]
*326 RAM\[37\]\[3\]
*327 RAM\[37\]\[4\]
*328 RAM\[37\]\[5\]
*329 RAM\[38\]\[0\]
*330 RAM\[38\]\[1\]
*331 RAM\[38\]\[2\]
*332 RAM\[38\]\[3\]
*333 RAM\[38\]\[4\]
*334 RAM\[38\]\[5\]
*335 RAM\[39\]\[0\]
*336 RAM\[39\]\[1\]
*337 RAM\[39\]\[2\]
*338 RAM\[39\]\[3\]
*339 RAM\[39\]\[4\]
*340 RAM\[39\]\[5\]
*341 RAM\[3\]\[0\]
*342 RAM\[3\]\[1\]
*343 RAM\[3\]\[2\]
*344 RAM\[3\]\[3\]
*345 RAM\[3\]\[4\]
*346 RAM\[3\]\[5\]
*347 RAM\[40\]\[0\]
*348 RAM\[40\]\[1\]
*349 RAM\[40\]\[2\]
*350 RAM\[40\]\[3\]
*351 RAM\[40\]\[4\]
*352 RAM\[40\]\[5\]
*353 RAM\[41\]\[0\]
*354 RAM\[41\]\[1\]
*355 RAM\[41\]\[2\]
*356 RAM\[41\]\[3\]
*357 RAM\[41\]\[4\]
*358 RAM\[41\]\[5\]
*359 RAM\[42\]\[0\]
*360 RAM\[42\]\[1\]
*361 RAM\[42\]\[2\]
*362 RAM\[42\]\[3\]
*363 RAM\[42\]\[4\]
*364 RAM\[42\]\[5\]
*365 RAM\[43\]\[0\]
*366 RAM\[43\]\[1\]
*367 RAM\[43\]\[2\]
*368 RAM\[43\]\[3\]
*369 RAM\[43\]\[4\]
*370 RAM\[43\]\[5\]
*371 RAM\[44\]\[0\]
*372 RAM\[44\]\[1\]
*373 RAM\[44\]\[2\]
*374 RAM\[44\]\[3\]
*375 RAM\[44\]\[4\]
*376 RAM\[44\]\[5\]
*377 RAM\[45\]\[0\]
*378 RAM\[45\]\[1\]
*379 RAM\[45\]\[2\]
*380 RAM\[45\]\[3\]
*381 RAM\[45\]\[4\]
*382 RAM\[45\]\[5\]
*383 RAM\[46\]\[0\]
*384 RAM\[46\]\[1\]
*385 RAM\[46\]\[2\]
*386 RAM\[46\]\[3\]
*387 RAM\[46\]\[4\]
*388 RAM\[46\]\[5\]
*389 RAM\[47\]\[0\]
*390 RAM\[47\]\[1\]
*391 RAM\[47\]\[2\]
*392 RAM\[47\]\[3\]
*393 RAM\[47\]\[4\]
*394 RAM\[47\]\[5\]
*395 RAM\[48\]\[0\]
*396 RAM\[48\]\[1\]
*397 RAM\[48\]\[2\]
*398 RAM\[48\]\[3\]
*399 RAM\[48\]\[4\]
*400 RAM\[48\]\[5\]
*401 RAM\[49\]\[0\]
*402 RAM\[49\]\[1\]
*403 RAM\[49\]\[2\]
*404 RAM\[49\]\[3\]
*405 RAM\[49\]\[4\]
*406 RAM\[49\]\[5\]
*407 RAM\[4\]\[0\]
*408 RAM\[4\]\[1\]
*409 RAM\[4\]\[2\]
*410 RAM\[4\]\[3\]
*411 RAM\[4\]\[4\]
*412 RAM\[4\]\[5\]
*413 RAM\[50\]\[0\]
*414 RAM\[50\]\[1\]
*415 RAM\[50\]\[2\]
*416 RAM\[50\]\[3\]
*417 RAM\[50\]\[4\]
*418 RAM\[50\]\[5\]
*419 RAM\[51\]\[0\]
*420 RAM\[51\]\[1\]
*421 RAM\[51\]\[2\]
*422 RAM\[51\]\[3\]
*423 RAM\[51\]\[4\]
*424 RAM\[51\]\[5\]
*425 RAM\[52\]\[0\]
*426 RAM\[52\]\[1\]
*427 RAM\[52\]\[2\]
*428 RAM\[52\]\[3\]
*429 RAM\[52\]\[4\]
*430 RAM\[52\]\[5\]
*431 RAM\[53\]\[0\]
*432 RAM\[53\]\[1\]
*433 RAM\[53\]\[2\]
*434 RAM\[53\]\[3\]
*435 RAM\[53\]\[4\]
*436 RAM\[53\]\[5\]
*437 RAM\[54\]\[0\]
*438 RAM\[54\]\[1\]
*439 RAM\[54\]\[2\]
*440 RAM\[54\]\[3\]
*441 RAM\[54\]\[4\]
*442 RAM\[54\]\[5\]
*443 RAM\[55\]\[0\]
*444 RAM\[55\]\[1\]
*445 RAM\[55\]\[2\]
*446 RAM\[55\]\[3\]
*447 RAM\[55\]\[4\]
*448 RAM\[55\]\[5\]
*449 RAM\[56\]\[0\]
*450 RAM\[56\]\[1\]
*451 RAM\[56\]\[2\]
*452 RAM\[56\]\[3\]
*453 RAM\[56\]\[4\]
*454 RAM\[56\]\[5\]
*455 RAM\[57\]\[0\]
*456 RAM\[57\]\[1\]
*457 RAM\[57\]\[2\]
*458 RAM\[57\]\[3\]
*459 RAM\[57\]\[4\]
*460 RAM\[57\]\[5\]
*461 RAM\[59\]\[0\]
*462 RAM\[59\]\[1\]
*463 RAM\[59\]\[2\]
*464 RAM\[59\]\[3\]
*465 RAM\[59\]\[4\]
*466 RAM\[59\]\[5\]
*467 RAM\[5\]\[0\]
*468 RAM\[5\]\[1\]
*469 RAM\[5\]\[2\]
*470 RAM\[5\]\[3\]
*471 RAM\[5\]\[4\]
*472 RAM\[5\]\[5\]
*473 RAM\[61\]\[0\]
*474 RAM\[61\]\[1\]
*475 RAM\[61\]\[2\]
*476 RAM\[61\]\[3\]
*477 RAM\[61\]\[4\]
*478 RAM\[61\]\[5\]
*479 RAM\[62\]\[0\]
*480 RAM\[62\]\[1\]
*481 RAM\[62\]\[2\]
*482 RAM\[62\]\[3\]
*483 RAM\[62\]\[4\]
*484 RAM\[62\]\[5\]
*485 RAM\[6\]\[0\]
*486 RAM\[6\]\[1\]
*487 RAM\[6\]\[2\]
*488 RAM\[6\]\[3\]
*489 RAM\[6\]\[4\]
*490 RAM\[6\]\[5\]
*491 RAM\[7\]\[0\]
*492 RAM\[7\]\[1\]
*493 RAM\[7\]\[2\]
*494 RAM\[7\]\[3\]
*495 RAM\[7\]\[4\]
*496 RAM\[7\]\[5\]
*497 RAM\[8\]\[0\]
*498 RAM\[8\]\[1\]
*499 RAM\[8\]\[2\]
*500 RAM\[8\]\[3\]
*501 RAM\[8\]\[4\]
*502 RAM\[8\]\[5\]
*503 RAM\[9\]\[0\]
*504 RAM\[9\]\[1\]
*505 RAM\[9\]\[2\]
*506 RAM\[9\]\[3\]
*507 RAM\[9\]\[4\]
*508 RAM\[9\]\[5\]
*509 ROM_OEB
*510 ROM_addr_buff\[0\]
*511 ROM_addr_buff\[10\]
*512 ROM_addr_buff\[11\]
*513 ROM_addr_buff\[1\]
*514 ROM_addr_buff\[2\]
*515 ROM_addr_buff\[3\]
*516 ROM_addr_buff\[4\]
*517 ROM_addr_buff\[5\]
*518 ROM_addr_buff\[6\]
*519 ROM_addr_buff\[7\]
*520 ROM_addr_buff\[8\]
*521 ROM_addr_buff\[9\]
*522 ROM_dest\[0\]
*523 ROM_dest\[1\]
*524 ROM_dest\[2\]
*525 ROM_spi_cycle\[0\]
*526 ROM_spi_cycle\[1\]
*527 ROM_spi_cycle\[2\]
*528 ROM_spi_cycle\[3\]
*529 ROM_spi_cycle\[4\]
*530 ROM_spi_dat_out\[0\]
*531 ROM_spi_dat_out\[1\]
*532 ROM_spi_dat_out\[2\]
*533 ROM_spi_dat_out\[3\]
*534 ROM_spi_dat_out\[4\]
*535 ROM_spi_dat_out\[5\]
*536 ROM_spi_dat_out\[6\]
*537 ROM_spi_dat_out\[7\]
*538 ROM_spi_mode
*539 _0000_
*540 _0001_
*541 _0002_
*542 _0003_
*543 _0004_
*544 _0005_
*545 _0006_
*546 _0007_
*547 _0008_
*548 _0009_
*549 _0010_
*550 _0011_
*551 _0012_
*552 _0013_
*553 _0014_
*554 _0015_
*555 _0016_
*556 _0017_
*557 _0018_
*558 _0019_
*559 _0020_
*560 _0021_
*561 _0022_
*562 _0023_
*563 _0024_
*564 _0025_
*565 _0026_
*566 _0027_
*567 _0028_
*568 _0029_
*569 _0030_
*570 _0031_
*571 _0032_
*572 _0033_
*573 _0034_
*574 _0035_
*575 _0036_
*576 _0037_
*577 _0038_
*578 _0039_
*579 _0040_
*580 _0041_
*581 _0042_
*582 _0043_
*583 _0044_
*584 _0045_
*585 _0046_
*586 _0047_
*587 _0048_
*588 _0049_
*589 _0050_
*590 _0051_
*591 _0052_
*592 _0053_
*593 _0054_
*594 _0055_
*595 _0056_
*596 _0057_
*597 _0058_
*598 _0059_
*599 _0060_
*600 _0061_
*601 _0062_
*602 _0063_
*603 _0064_
*604 _0065_
*605 _0066_
*606 _0067_
*607 _0068_
*608 _0069_
*609 _0070_
*610 _0071_
*611 _0072_
*612 _0073_
*613 _0074_
*614 _0075_
*615 _0076_
*616 _0077_
*617 _0078_
*618 _0079_
*619 _0080_
*620 _0081_
*621 _0082_
*622 _0083_
*623 _0084_
*624 _0085_
*625 _0086_
*626 _0087_
*627 _0088_
*628 _0089_
*629 _0090_
*630 _0091_
*631 _0092_
*632 _0093_
*633 _0094_
*634 _0095_
*635 _0096_
*636 _0097_
*637 _0098_
*638 _0099_
*639 _0100_
*640 _0101_
*641 _0102_
*642 _0103_
*643 _0104_
*644 _0105_
*645 _0106_
*646 _0107_
*647 _0108_
*648 _0109_
*649 _0110_
*650 _0111_
*651 _0112_
*652 _0113_
*653 _0114_
*654 _0115_
*655 _0116_
*656 _0117_
*657 _0118_
*658 _0119_
*659 _0120_
*660 _0121_
*661 _0122_
*662 _0123_
*663 _0124_
*664 _0125_
*665 _0126_
*666 _0127_
*667 _0128_
*668 _0129_
*669 _0130_
*670 _0131_
*671 _0132_
*672 _0133_
*673 _0134_
*674 _0135_
*675 _0136_
*676 _0137_
*677 _0138_
*678 _0139_
*679 _0140_
*680 _0141_
*681 _0142_
*682 _0143_
*683 _0144_
*684 _0145_
*685 _0146_
*686 _0147_
*687 _0148_
*688 _0149_
*689 _0150_
*690 _0151_
*691 _0152_
*692 _0153_
*693 _0154_
*694 _0155_
*695 _0156_
*696 _0157_
*697 _0158_
*698 _0159_
*699 _0160_
*700 _0161_
*701 _0162_
*702 _0163_
*703 _0164_
*704 _0165_
*705 _0166_
*706 _0167_
*707 _0168_
*708 _0169_
*709 _0170_
*710 _0171_
*711 _0172_
*712 _0173_
*713 _0174_
*714 _0175_
*715 _0176_
*716 _0177_
*717 _0178_
*718 _0179_
*719 _0180_
*720 _0181_
*721 _0182_
*722 _0183_
*723 _0184_
*724 _0185_
*725 _0186_
*726 _0187_
*727 _0188_
*728 _0189_
*729 _0190_
*730 _0191_
*731 _0192_
*732 _0193_
*733 _0194_
*734 _0195_
*735 _0196_
*736 _0197_
*737 _0198_
*738 _0199_
*739 _0200_
*740 _0201_
*741 _0202_
*742 _0203_
*743 _0204_
*744 _0205_
*745 _0206_
*746 _0207_
*747 _0208_
*748 _0209_
*749 _0210_
*750 _0211_
*751 _0212_
*752 _0213_
*753 _0214_
*754 _0215_
*755 _0216_
*756 _0217_
*757 _0218_
*758 _0219_
*759 _0220_
*760 _0221_
*761 _0222_
*762 _0223_
*763 _0224_
*764 _0225_
*765 _0226_
*766 _0227_
*767 _0228_
*768 _0229_
*769 _0230_
*770 _0231_
*771 _0232_
*772 _0233_
*773 _0234_
*774 _0235_
*775 _0236_
*776 _0237_
*777 _0238_
*778 _0239_
*779 _0240_
*780 _0241_
*781 _0242_
*782 _0243_
*783 _0244_
*784 _0245_
*785 _0246_
*786 _0247_
*787 _0248_
*788 _0249_
*789 _0250_
*790 _0251_
*791 _0252_
*792 _0253_
*793 _0254_
*794 _0255_
*795 _0256_
*796 _0257_
*797 _0258_
*798 _0259_
*799 _0260_
*800 _0261_
*801 _0262_
*802 _0263_
*803 _0264_
*804 _0265_
*805 _0266_
*806 _0267_
*807 _0268_
*808 _0269_
*809 _0270_
*810 _0271_
*811 _0272_
*812 _0273_
*813 _0274_
*814 _0275_
*815 _0276_
*816 _0277_
*817 _0278_
*818 _0279_
*819 _0280_
*820 _0281_
*821 _0282_
*822 _0283_
*823 _0284_
*824 _0285_
*825 _0286_
*826 _0287_
*827 _0288_
*828 _0289_
*829 _0290_
*830 _0291_
*831 _0292_
*832 _0293_
*833 _0294_
*834 _0295_
*835 _0296_
*836 _0297_
*837 _0298_
*838 _0299_
*839 _0300_
*840 _0301_
*841 _0302_
*842 _0303_
*843 _0304_
*844 _0305_
*845 _0306_
*846 _0307_
*847 _0308_
*848 _0309_
*849 _0310_
*850 _0311_
*851 _0312_
*852 _0313_
*853 _0314_
*854 _0315_
*855 _0316_
*856 _0317_
*857 _0318_
*858 _0319_
*859 _0320_
*860 _0321_
*861 _0322_
*862 _0323_
*863 _0324_
*864 _0325_
*865 _0326_
*866 _0327_
*867 _0328_
*868 _0329_
*869 _0330_
*870 _0331_
*871 _0332_
*872 _0333_
*873 _0334_
*874 _0335_
*875 _0336_
*876 _0337_
*877 _0338_
*878 _0339_
*879 _0340_
*880 _0341_
*881 _0342_
*882 _0343_
*883 _0344_
*884 _0345_
*885 _0346_
*886 _0347_
*887 _0348_
*888 _0349_
*889 _0350_
*890 _0351_
*891 _0352_
*892 _0353_
*893 _0354_
*894 _0355_
*895 _0356_
*896 _0357_
*897 _0358_
*898 _0359_
*899 _0360_
*900 _0361_
*901 _0362_
*902 _0363_
*903 _0364_
*904 _0365_
*905 _0366_
*906 _0367_
*907 _0368_
*908 _0369_
*909 _0370_
*910 _0371_
*911 _0372_
*912 _0373_
*913 _0374_
*914 _0375_
*915 _0376_
*916 _0377_
*917 _0378_
*918 _0379_
*919 _0380_
*920 _0381_
*921 _0382_
*922 _0383_
*923 _0384_
*924 _0385_
*925 _0386_
*926 _0387_
*927 _0388_
*928 _0389_
*929 _0390_
*930 _0391_
*931 _0392_
*932 _0393_
*933 _0394_
*934 _0395_
*935 _0396_
*936 _0397_
*937 _0398_
*938 _0399_
*939 _0400_
*940 _0401_
*941 _0402_
*942 _0403_
*943 _0404_
*944 _0405_
*945 _0406_
*946 _0407_
*947 _0408_
*948 _0409_
*949 _0410_
*950 _0411_
*951 _0412_
*952 _0413_
*953 _0414_
*954 _0415_
*955 _0416_
*956 _0417_
*957 _0418_
*958 _0419_
*959 _0420_
*960 _0421_
*961 _0422_
*962 _0423_
*963 _0424_
*964 _0425_
*965 _0426_
*966 _0427_
*967 _0428_
*968 _0429_
*969 _0430_
*970 _0431_
*971 _0432_
*972 _0433_
*973 _0434_
*974 _0435_
*975 _0436_
*976 _0437_
*977 _0438_
*978 _0439_
*979 _0440_
*980 _0441_
*981 _0442_
*982 _0443_
*983 _0444_
*984 _0445_
*985 _0446_
*986 _0447_
*987 _0448_
*988 _0449_
*989 _0450_
*990 _0451_
*991 _0452_
*992 _0453_
*993 _0454_
*994 _0455_
*995 _0456_
*996 _0457_
*997 _0458_
*998 _0459_
*999 _0460_
*1000 _0461_
*1001 _0462_
*1002 _0463_
*1003 _0464_
*1004 _0465_
*1005 _0466_
*1006 _0467_
*1007 _0468_
*1008 _0469_
*1009 _0470_
*1010 _0471_
*1011 _0472_
*1012 _0473_
*1013 _0474_
*1014 _0475_
*1015 _0476_
*1016 _0477_
*1017 _0478_
*1018 _0479_
*1019 _0480_
*1020 _0481_
*1021 _0482_
*1022 _0483_
*1023 _0484_
*1024 _0485_
*1025 _0486_
*1026 _0487_
*1027 _0488_
*1028 _0489_
*1029 _0490_
*1030 _0491_
*1031 _0492_
*1032 _0493_
*1033 _0494_
*1034 _0495_
*1035 _0496_
*1036 _0497_
*1037 _0498_
*1038 _0499_
*1039 _0500_
*1040 _0501_
*1041 _0502_
*1042 _0503_
*1043 _0504_
*1044 _0505_
*1045 _0506_
*1046 _0507_
*1047 _0508_
*1048 _0509_
*1049 _0510_
*1050 _0511_
*1051 _0512_
*1052 _0513_
*1053 _0514_
*1054 _0515_
*1055 _0516_
*1056 _0517_
*1057 _0518_
*1058 _0519_
*1059 _0520_
*1060 _0521_
*1061 _0522_
*1062 _0523_
*1063 _0524_
*1064 _0525_
*1065 _0526_
*1066 _0527_
*1067 _0528_
*1068 _0529_
*1069 _0530_
*1070 _0531_
*1071 _0532_
*1072 _0533_
*1073 _0534_
*1074 _0535_
*1075 _0536_
*1076 _0537_
*1077 _0538_
*1078 _0539_
*1079 _0540_
*1080 _0541_
*1081 _0542_
*1082 _0543_
*1083 _0544_
*1084 _0545_
*1085 _0546_
*1086 _0547_
*1087 _0548_
*1088 _0549_
*1089 _0550_
*1090 _0551_
*1091 _0552_
*1092 _0553_
*1093 _0554_
*1094 _0555_
*1095 _0556_
*1096 _0557_
*1097 _0558_
*1098 _0559_
*1099 _0560_
*1100 _0561_
*1101 _0562_
*1102 _0563_
*1103 _0564_
*1104 _0565_
*1105 _0566_
*1106 _0567_
*1107 _0568_
*1108 _0569_
*1109 _0570_
*1110 _0571_
*1111 _0572_
*1112 _0573_
*1113 _0574_
*1114 _0575_
*1115 _0576_
*1116 _0577_
*1117 _0578_
*1118 _0579_
*1119 _0580_
*1120 _0581_
*1121 _0582_
*1122 _0583_
*1123 _0584_
*1124 _0585_
*1125 _0586_
*1126 _0587_
*1127 _0588_
*1128 _0589_
*1129 _0590_
*1130 _0591_
*1131 _0592_
*1132 _0593_
*1133 _0594_
*1134 _0595_
*1135 _0596_
*1136 _0597_
*1137 _0598_
*1138 _0599_
*1139 _0600_
*1140 _0601_
*1141 _0602_
*1142 _0603_
*1143 _0604_
*1144 _0605_
*1145 _0606_
*1146 _0607_
*1147 _0608_
*1148 _0609_
*1149 _0610_
*1150 _0611_
*1151 _0612_
*1152 _0613_
*1153 _0614_
*1154 _0615_
*1155 _0616_
*1156 _0617_
*1157 _0618_
*1158 _0619_
*1159 _0620_
*1160 _0621_
*1161 _0622_
*1162 _0623_
*1163 _0624_
*1164 _0625_
*1165 _0626_
*1166 _0627_
*1167 _0628_
*1168 _0629_
*1169 _0630_
*1170 _0631_
*1171 _0632_
*1172 _0633_
*1173 _0634_
*1174 _0635_
*1175 _0636_
*1176 _0637_
*1177 _0638_
*1178 _0639_
*1179 _0640_
*1180 _0641_
*1181 _0642_
*1182 _0643_
*1183 _0644_
*1184 _0645_
*1185 _0646_
*1186 _0647_
*1187 _0648_
*1188 _0649_
*1189 _0650_
*1190 _0651_
*1191 _0652_
*1192 _0653_
*1193 _0654_
*1194 _0655_
*1195 _0656_
*1196 _0657_
*1197 _0658_
*1198 _0659_
*1199 _0660_
*1200 _0661_
*1201 _0662_
*1202 _0663_
*1203 _0664_
*1204 _0665_
*1205 _0666_
*1206 _0667_
*1207 _0668_
*1208 _0669_
*1209 _0670_
*1210 _0671_
*1211 _0672_
*1212 _0673_
*1213 _0674_
*1214 _0675_
*1215 _0676_
*1216 _0677_
*1217 _0678_
*1218 _0679_
*1219 _0680_
*1220 _0681_
*1221 _0682_
*1222 _0683_
*1223 _0684_
*1224 _0685_
*1225 _0686_
*1226 _0687_
*1227 _0688_
*1228 _0689_
*1229 _0690_
*1230 _0691_
*1231 _0692_
*1232 _0693_
*1233 _0694_
*1234 _0695_
*1235 _0696_
*1236 _0697_
*1237 _0698_
*1238 _0699_
*1239 _0700_
*1240 _0701_
*1241 _0702_
*1242 _0703_
*1243 _0704_
*1244 _0705_
*1245 _0706_
*1246 _0707_
*1247 _0708_
*1248 _0709_
*1249 _0710_
*1250 _0711_
*1251 _0712_
*1252 _0713_
*1253 _0714_
*1254 _0715_
*1255 _0716_
*1256 _0717_
*1257 _0718_
*1258 _0719_
*1259 _0720_
*1260 _0721_
*1261 _0722_
*1262 _0723_
*1263 _0724_
*1264 _0725_
*1265 _0726_
*1266 _0727_
*1267 _0728_
*1268 _0729_
*1269 _0730_
*1270 _0731_
*1271 _0732_
*1272 _0733_
*1273 _0734_
*1274 _0735_
*1275 _0736_
*1276 _0737_
*1277 _0738_
*1278 _0739_
*1279 _0740_
*1280 _0741_
*1281 _0742_
*1282 _0743_
*1283 _0744_
*1284 _0745_
*1285 _0746_
*1286 _0747_
*1287 _0748_
*1288 _0749_
*1289 _0750_
*1290 _0751_
*1291 _0752_
*1292 _0753_
*1293 _0754_
*1294 _0755_
*1295 _0756_
*1296 _0757_
*1297 _0758_
*1298 _0759_
*1299 _0760_
*1300 _0761_
*1301 _0762_
*1302 _0763_
*1303 _0764_
*1304 _0765_
*1305 _0766_
*1306 _0767_
*1307 _0768_
*1308 _0769_
*1309 _0770_
*1310 _0771_
*1311 _0772_
*1312 _0773_
*1313 _0774_
*1314 _0775_
*1315 _0776_
*1316 _0777_
*1317 _0778_
*1318 _0779_
*1319 _0780_
*1320 _0781_
*1321 _0782_
*1322 _0783_
*1323 _0784_
*1324 _0785_
*1325 _0786_
*1326 _0787_
*1327 _0788_
*1328 _0789_
*1329 _0790_
*1330 _0791_
*1331 _0792_
*1332 _0793_
*1333 _0794_
*1334 _0795_
*1335 _0796_
*1336 _0797_
*1337 _0798_
*1338 _0799_
*1339 _0800_
*1340 _0801_
*1341 _0802_
*1342 _0803_
*1343 _0804_
*1344 _0805_
*1345 _0806_
*1346 _0807_
*1347 _0808_
*1348 _0809_
*1349 _0810_
*1350 _0811_
*1351 _0812_
*1352 _0813_
*1353 _0814_
*1354 _0815_
*1355 _0816_
*1356 _0817_
*1357 _0818_
*1358 _0819_
*1359 _0820_
*1360 _0821_
*1361 _0822_
*1362 _0823_
*1363 _0824_
*1364 _0825_
*1365 _0826_
*1366 _0827_
*1367 _0828_
*1368 _0829_
*1369 _0830_
*1370 _0831_
*1371 _0832_
*1372 _0833_
*1373 _0834_
*1374 _0835_
*1375 _0836_
*1376 _0837_
*1377 _0838_
*1378 _0839_
*1379 _0840_
*1380 _0841_
*1381 _0842_
*1382 _0843_
*1383 _0844_
*1384 _0845_
*1385 _0846_
*1386 _0847_
*1387 _0848_
*1388 _0849_
*1389 _0850_
*1390 _0851_
*1391 _0852_
*1392 _0853_
*1393 _0854_
*1394 _0855_
*1395 _0856_
*1396 _0857_
*1397 _0858_
*1398 _0859_
*1399 _0860_
*1400 _0861_
*1401 _0862_
*1402 _0863_
*1403 _0864_
*1404 _0865_
*1405 _0866_
*1406 _0867_
*1407 _0868_
*1408 _0869_
*1409 _0870_
*1410 _0871_
*1411 _0872_
*1412 _0873_
*1413 _0874_
*1414 _0875_
*1415 _0876_
*1416 _0877_
*1417 _0878_
*1418 _0879_
*1419 _0880_
*1420 _0881_
*1421 _0882_
*1422 _0883_
*1423 _0884_
*1424 _0885_
*1425 _0886_
*1426 _0887_
*1427 _0888_
*1428 _0889_
*1429 _0890_
*1430 _0891_
*1431 _0892_
*1432 _0893_
*1433 _0894_
*1434 _0895_
*1435 _0896_
*1436 _0897_
*1437 _0898_
*1438 _0899_
*1439 _0900_
*1440 _0901_
*1441 _0902_
*1442 _0903_
*1443 _0904_
*1444 _0905_
*1445 _0906_
*1446 _0907_
*1447 _0908_
*1448 _0909_
*1449 _0910_
*1450 _0911_
*1451 _0912_
*1452 _0913_
*1453 _0914_
*1454 _0915_
*1455 _0916_
*1456 _0917_
*1457 _0918_
*1458 _0919_
*1459 _0920_
*1460 _0921_
*1461 _0922_
*1462 _0923_
*1463 _0924_
*1464 _0925_
*1465 _0926_
*1466 _0927_
*1467 _0928_
*1468 _0929_
*1469 _0930_
*1470 _0931_
*1471 _0932_
*1472 _0933_
*1473 _0934_
*1474 _0935_
*1475 _0936_
*1476 _0937_
*1477 _0938_
*1478 _0939_
*1479 _0940_
*1480 _0941_
*1481 _0942_
*1482 _0943_
*1483 _0944_
*1484 _0945_
*1485 _0946_
*1486 _0947_
*1487 _0948_
*1488 _0949_
*1489 _0950_
*1490 _0951_
*1491 _0952_
*1492 _0953_
*1493 _0954_
*1494 _0955_
*1495 _0956_
*1496 _0957_
*1497 _0958_
*1498 _0959_
*1499 _0960_
*1500 _0961_
*1501 _0962_
*1502 _0963_
*1503 _0964_
*1504 _0965_
*1505 _0966_
*1506 _0967_
*1507 _0968_
*1508 _0969_
*1509 _0970_
*1510 _0971_
*1511 _0972_
*1512 _0973_
*1513 _0974_
*1514 _0975_
*1515 _0976_
*1516 _0977_
*1517 _0978_
*1518 _0979_
*1519 _0980_
*1520 _0981_
*1521 _0982_
*1522 _0983_
*1523 _0984_
*1524 _0985_
*1525 _0986_
*1526 _0987_
*1527 _0988_
*1528 _0989_
*1529 _0990_
*1530 _0991_
*1531 _0992_
*1532 _0993_
*1533 _0994_
*1534 _0995_
*1535 _0996_
*1536 _0997_
*1537 _0998_
*1538 _0999_
*1539 _1000_
*1540 _1001_
*1541 _1002_
*1542 _1003_
*1543 _1004_
*1544 _1005_
*1545 _1006_
*1546 _1007_
*1547 _1008_
*1548 _1009_
*1549 _1010_
*1550 _1011_
*1551 _1012_
*1552 _1013_
*1553 _1014_
*1554 _1015_
*1555 _1016_
*1556 _1017_
*1557 _1018_
*1558 _1019_
*1559 _1020_
*1560 _1021_
*1561 _1022_
*1562 _1023_
*1563 _1024_
*1564 _1025_
*1565 _1026_
*1566 _1027_
*1567 _1028_
*1568 _1029_
*1569 _1030_
*1570 _1031_
*1571 _1032_
*1572 _1033_
*1573 _1034_
*1574 _1035_
*1575 _1036_
*1576 _1037_
*1577 _1038_
*1578 _1039_
*1579 _1040_
*1580 _1041_
*1581 _1042_
*1582 _1043_
*1583 _1044_
*1584 _1045_
*1585 _1046_
*1586 _1047_
*1587 _1048_
*1588 _1049_
*1589 _1050_
*1590 _1051_
*1591 _1052_
*1592 _1053_
*1593 _1054_
*1594 _1055_
*1595 _1056_
*1596 _1057_
*1597 _1058_
*1598 _1059_
*1599 _1060_
*1600 _1061_
*1601 _1062_
*1602 _1063_
*1603 _1064_
*1604 _1065_
*1605 _1066_
*1606 _1067_
*1607 _1068_
*1608 _1069_
*1609 _1070_
*1610 _1071_
*1611 _1072_
*1612 _1073_
*1613 _1074_
*1614 _1075_
*1615 _1076_
*1616 _1077_
*1617 _1078_
*1618 _1079_
*1619 _1080_
*1620 _1081_
*1621 _1082_
*1622 _1083_
*1623 _1084_
*1624 _1085_
*1625 _1086_
*1626 _1087_
*1627 _1088_
*1628 _1089_
*1629 _1090_
*1630 _1091_
*1631 _1092_
*1632 _1093_
*1633 _1094_
*1634 _1095_
*1635 _1096_
*1636 _1097_
*1637 _1098_
*1638 _1099_
*1639 _1100_
*1640 _1101_
*1641 _1102_
*1642 _1103_
*1643 _1104_
*1644 _1105_
*1645 _1106_
*1646 _1107_
*1647 _1108_
*1648 _1109_
*1649 _1110_
*1650 _1111_
*1651 _1112_
*1652 _1113_
*1653 _1114_
*1654 _1115_
*1655 _1116_
*1656 _1117_
*1657 _1118_
*1658 _1119_
*1659 _1120_
*1660 _1121_
*1661 _1122_
*1662 _1123_
*1663 _1124_
*1664 _1125_
*1665 _1126_
*1666 _1127_
*1667 _1128_
*1668 _1129_
*1669 _1130_
*1670 _1131_
*1671 _1132_
*1672 _1133_
*1673 _1134_
*1674 _1135_
*1675 _1136_
*1676 _1137_
*1677 _1138_
*1678 _1139_
*1679 _1140_
*1680 _1141_
*1681 _1142_
*1682 _1143_
*1683 _1144_
*1684 _1145_
*1685 _1146_
*1686 _1147_
*1687 _1148_
*1688 _1149_
*1689 _1150_
*1690 _1151_
*1691 _1152_
*1692 _1153_
*1693 _1154_
*1694 _1155_
*1695 _1156_
*1696 _1157_
*1697 _1158_
*1698 _1159_
*1699 _1160_
*1700 _1161_
*1701 _1162_
*1702 _1163_
*1703 _1164_
*1704 _1165_
*1705 _1166_
*1706 _1167_
*1707 _1168_
*1708 _1169_
*1709 _1170_
*1710 _1171_
*1711 _1172_
*1712 _1173_
*1713 _1174_
*1714 _1175_
*1715 _1176_
*1716 _1177_
*1717 _1178_
*1718 _1179_
*1719 _1180_
*1720 _1181_
*1721 _1182_
*1722 _1183_
*1723 _1184_
*1724 _1185_
*1725 _1186_
*1726 _1187_
*1727 _1188_
*1728 _1189_
*1729 _1190_
*1730 _1191_
*1731 _1192_
*1732 _1193_
*1733 _1194_
*1734 _1195_
*1735 _1196_
*1736 _1197_
*1737 _1198_
*1738 _1199_
*1739 _1200_
*1740 _1201_
*1741 _1202_
*1742 _1203_
*1743 _1204_
*1744 _1205_
*1745 _1206_
*1746 _1207_
*1747 _1208_
*1748 _1209_
*1749 _1210_
*1750 _1211_
*1751 _1212_
*1752 _1213_
*1753 _1214_
*1754 _1215_
*1755 _1216_
*1756 _1217_
*1757 _1218_
*1758 _1219_
*1759 _1220_
*1760 _1221_
*1761 _1222_
*1762 _1223_
*1763 _1224_
*1764 _1225_
*1765 _1226_
*1766 _1227_
*1767 _1228_
*1768 _1229_
*1769 _1230_
*1770 _1231_
*1771 _1232_
*1772 _1233_
*1773 _1234_
*1774 _1235_
*1775 _1236_
*1776 _1237_
*1777 _1238_
*1778 _1239_
*1779 _1240_
*1780 _1241_
*1781 _1242_
*1782 _1243_
*1783 _1244_
*1784 _1245_
*1785 _1246_
*1786 _1247_
*1787 _1248_
*1788 _1249_
*1789 _1250_
*1790 _1251_
*1791 _1252_
*1792 _1253_
*1793 _1254_
*1794 _1255_
*1795 _1256_
*1796 _1257_
*1797 _1258_
*1798 _1259_
*1799 _1260_
*1800 _1261_
*1801 _1262_
*1802 _1263_
*1803 _1264_
*1804 _1265_
*1805 _1266_
*1806 _1267_
*1807 _1268_
*1808 _1269_
*1809 _1270_
*1810 _1271_
*1811 _1272_
*1812 _1273_
*1813 _1274_
*1814 _1275_
*1815 _1276_
*1816 _1277_
*1817 _1278_
*1818 _1279_
*1819 _1280_
*1820 _1281_
*1821 _1282_
*1822 _1283_
*1823 _1284_
*1824 _1285_
*1825 _1286_
*1826 _1287_
*1827 _1288_
*1828 _1289_
*1829 _1290_
*1830 _1291_
*1831 _1292_
*1832 _1293_
*1833 _1294_
*1834 _1295_
*1835 _1296_
*1836 _1297_
*1837 _1298_
*1838 _1299_
*1839 _1300_
*1840 _1301_
*1841 _1302_
*1842 _1303_
*1843 _1304_
*1844 _1305_
*1845 _1306_
*1846 _1307_
*1847 _1308_
*1848 _1309_
*1849 _1310_
*1850 _1311_
*1851 _1312_
*1852 _1313_
*1853 _1314_
*1854 _1315_
*1855 _1316_
*1856 _1317_
*1857 _1318_
*1858 _1319_
*1859 _1320_
*1860 _1321_
*1861 _1322_
*1862 _1323_
*1863 _1324_
*1864 _1325_
*1865 _1326_
*1866 _1327_
*1867 _1328_
*1868 _1329_
*1869 _1330_
*1870 _1331_
*1871 _1332_
*1872 _1333_
*1873 _1334_
*1874 _1335_
*1875 _1336_
*1876 _1337_
*1877 _1338_
*1878 _1339_
*1879 _1340_
*1880 _1341_
*1881 _1342_
*1882 _1343_
*1883 _1344_
*1884 _1345_
*1885 _1346_
*1886 _1347_
*1887 _1348_
*1888 _1349_
*1889 _1350_
*1890 _1351_
*1891 _1352_
*1892 _1353_
*1893 _1354_
*1894 _1355_
*1895 _1356_
*1896 _1357_
*1897 _1358_
*1898 _1359_
*1899 _1360_
*1900 _1361_
*1901 _1362_
*1902 _1363_
*1903 _1364_
*1904 _1365_
*1905 _1366_
*1906 _1367_
*1907 _1368_
*1908 _1369_
*1909 _1370_
*1910 _1371_
*1911 _1372_
*1912 _1373_
*1913 _1374_
*1914 _1375_
*1915 _1376_
*1916 _1377_
*1917 _1378_
*1918 _1379_
*1919 _1380_
*1920 _1381_
*1921 _1382_
*1922 _1383_
*1923 _1384_
*1924 _1385_
*1925 _1386_
*1926 _1387_
*1927 _1388_
*1928 _1389_
*1929 _1390_
*1930 _1391_
*1931 _1392_
*1932 _1393_
*1933 _1394_
*1934 _1395_
*1935 _1396_
*1936 _1397_
*1937 _1398_
*1938 _1399_
*1939 _1400_
*1940 _1401_
*1941 _1402_
*1942 _1403_
*1943 _1404_
*1944 _1405_
*1945 _1406_
*1946 _1407_
*1947 _1408_
*1948 _1409_
*1949 _1410_
*1950 _1411_
*1951 _1412_
*1952 _1413_
*1953 _1414_
*1954 _1415_
*1955 _1416_
*1956 _1417_
*1957 _1418_
*1958 _1419_
*1959 _1420_
*1960 _1421_
*1961 _1422_
*1962 _1423_
*1963 _1424_
*1964 _1425_
*1965 _1426_
*1966 _1427_
*1967 _1428_
*1968 _1429_
*1969 _1430_
*1970 _1431_
*1971 _1432_
*1972 _1433_
*1973 _1434_
*1974 _1435_
*1975 _1436_
*1976 _1437_
*1977 _1438_
*1978 _1439_
*1979 _1440_
*1980 _1441_
*1981 _1442_
*1982 _1443_
*1983 _1444_
*1984 _1445_
*1985 _1446_
*1986 _1447_
*1987 _1448_
*1988 _1449_
*1989 _1450_
*1990 _1451_
*1991 _1452_
*1992 _1453_
*1993 _1454_
*1994 _1455_
*1995 _1456_
*1996 _1457_
*1997 _1458_
*1998 _1459_
*1999 _1460_
*2000 _1461_
*2001 _1462_
*2002 _1463_
*2003 _1464_
*2004 _1465_
*2005 _1466_
*2006 _1467_
*2007 _1468_
*2008 _1469_
*2009 _1470_
*2010 _1471_
*2011 _1472_
*2012 _1473_
*2013 _1474_
*2014 _1475_
*2015 _1476_
*2016 _1477_
*2017 _1478_
*2018 _1479_
*2019 _1480_
*2020 _1481_
*2021 _1482_
*2022 _1483_
*2023 _1484_
*2024 _1485_
*2025 _1486_
*2026 _1487_
*2027 _1488_
*2028 _1489_
*2029 _1490_
*2030 _1491_
*2031 _1492_
*2032 _1493_
*2033 _1494_
*2034 _1495_
*2035 _1496_
*2036 _1497_
*2037 _1498_
*2038 _1499_
*2039 _1500_
*2040 _1501_
*2041 _1502_
*2042 _1503_
*2043 _1504_
*2044 _1505_
*2045 _1506_
*2046 _1507_
*2047 _1508_
*2048 _1509_
*2049 _1510_
*2050 _1511_
*2051 _1512_
*2052 _1513_
*2053 _1514_
*2054 _1515_
*2055 _1516_
*2056 _1517_
*2057 _1518_
*2058 _1519_
*2059 _1520_
*2060 _1521_
*2061 _1522_
*2062 _1523_
*2063 _1524_
*2064 _1525_
*2065 _1526_
*2066 _1527_
*2067 _1528_
*2068 _1529_
*2069 _1530_
*2070 _1531_
*2071 _1532_
*2072 _1533_
*2073 _1534_
*2074 _1535_
*2075 _1536_
*2076 _1537_
*2077 _1538_
*2078 _1539_
*2079 _1540_
*2080 _1541_
*2081 _1542_
*2082 _1543_
*2083 _1544_
*2084 _1545_
*2085 _1546_
*2086 _1547_
*2087 _1548_
*2088 _1549_
*2089 _1550_
*2090 _1551_
*2091 _1552_
*2092 _1553_
*2093 _1554_
*2094 _1555_
*2095 _1556_
*2096 _1557_
*2097 _1558_
*2098 _1559_
*2099 _1560_
*2100 _1561_
*2101 _1562_