*SPEF "ieee 1481-1999"
*DESIGN "unused_tie"
*DATE "11:11:11 Fri 11 11, 1111"
*VENDOR "OpenRCX"
*PROGRAM "Parallel Extraction"
*VERSION "1.0"
*DESIGN_FLOW "NAME_SCOPE LOCAL" "PIN_CAP NONE"
*DIVIDER /
*DELIMITER :
*BUS_DELIMITER []
*T_UNIT 1 NS
*C_UNIT 1 PF
*R_UNIT 1 OHM
*L_UNIT 1 HENRY

*NAME_MAP
*1 net97
*2 net98
*3 net99
*4 la_data_out[0]
*5 la_data_out[10]
*6 la_data_out[11]
*7 la_data_out[12]
*8 la_data_out[13]
*9 la_data_out[14]
*10 la_data_out[15]
*11 la_data_out[16]
*12 la_data_out[17]
*13 la_data_out[18]
*14 la_data_out[19]
*15 la_data_out[1]
*16 la_data_out[20]
*17 la_data_out[21]
*18 la_data_out[22]
*19 la_data_out[23]
*20 la_data_out[24]
*21 la_data_out[25]
*22 la_data_out[26]
*23 la_data_out[27]
*24 la_data_out[28]
*25 la_data_out[29]
*26 la_data_out[2]
*27 la_data_out[30]
*28 la_data_out[31]
*29 la_data_out[32]
*30 la_data_out[33]
*31 la_data_out[34]
*32 la_data_out[35]
*33 la_data_out[36]
*34 la_data_out[37]
*35 la_data_out[38]
*36 la_data_out[39]
*37 la_data_out[3]
*38 la_data_out[40]
*39 la_data_out[41]
*40 la_data_out[42]
*41 la_data_out[43]
*42 la_data_out[44]
*43 la_data_out[45]
*44 la_data_out[46]
*45 la_data_out[47]
*46 la_data_out[48]
*47 la_data_out[49]
*48 la_data_out[4]
*49 la_data_out[50]
*50 la_data_out[51]
*51 la_data_out[52]
*52 la_data_out[53]
*53 la_data_out[54]
*54 la_data_out[55]
*55 la_data_out[56]
*56 la_data_out[57]
*57 la_data_out[58]
*58 la_data_out[59]
*59 la_data_out[5]
*60 la_data_out[60]
*61 la_data_out[61]
*62 la_data_out[62]
*63 la_data_out[63]
*64 la_data_out[64]
*65 la_data_out[65]
*66 la_data_out[66]
*67 la_data_out[67]
*68 la_data_out[68]
*69 la_data_out[69]
*70 la_data_out[6]
*71 la_data_out[70]
*72 la_data_out[71]
*73 la_data_out[72]
*74 la_data_out[73]
*75 la_data_out[74]
*76 la_data_out[75]
*77 la_data_out[76]
*78 la_data_out[77]
*79 la_data_out[78]
*80 la_data_out[79]
*81 la_data_out[7]
*82 la_data_out[80]
*83 la_data_out[81]
*84 la_data_out[82]
*85 la_data_out[83]
*86 la_data_out[84]
*87 la_data_out[85]
*88 la_data_out[86]
*89 la_data_out[87]
*90 la_data_out[8]
*91 la_data_out[9]
*94 wb_clk_i
*95 wb_rst_i
*96 _000_
*97 _001_
*98 _002_
*99 _003_
*100 _004_
*101 _005_
*102 _006_
*103 _007_
*104 _008_
*105 _009_
*106 _010_
*107 _011_
*108 _012_
*109 _013_
*110 _014_
*111 _015_
*112 _016_
*113 _017_
*114 _018_
*115 _019_
*116 _020_
*117 _021_
*118 _022_
*119 _023_
*120 _024_
*121 _025_
*122 _026_
*123 _027_
*124 _028_
*125 _029_
*126 _030_
*127 _031_
*128 _032_
*129 _033_
*130 _034_
*131 _035_
*132 _036_
*133 _037_
*134 _038_
*135 _039_
*136 _040_
*137 _041_
*138 _042_
*139 _043_
*140 _044_
*141 _045_
*142 _046_
*143 _047_
*144 _048_
*145 _049_
*146 _050_
*147 _051_
*148 _052_
*149 _053_
*150 _054_
*151 _055_
*152 _056_
*153 _057_
*154 _058_
*155 _059_
*156 _060_
*157 _061_
*158 _062_
*159 _063_
*160 _064_
*161 _065_
*162 _066_
*163 _067_
*164 _068_
*165 _069_
*166 _070_
*167 _071_
*168 _072_
*169 _073_
*170 _074_
*171 _075_
*172 _076_
*173 _077_
*174 _078_
*175 _079_
*176 _080_
*177 _081_
*178 _082_
*179 _083_
*180 _084_
*181 _085_
*182 _086_
*183 _087_
*184 clknet_0_wb_clk_i
*185 clknet_3_0__leaf_wb_clk_i
*186 clknet_3_1__leaf_wb_clk_i
*187 clknet_3_2__leaf_wb_clk_i
*188 clknet_3_3__leaf_wb_clk_i
*189 clknet_3_4__leaf_wb_clk_i
*190 clknet_3_5__leaf_wb_clk_i
*191 clknet_3_6__leaf_wb_clk_i
*192 clknet_3_7__leaf_wb_clk_i
*193 net1
*194 net10
*195 net100
*196 net101
*197 net102
*198 net103
*199 net104
*200 net105
*201 net106
*202 net107
*203 net108
*204 net109
*205 net11
*206 net110
*207 net111
*208 net112
*209 net113
*210 net114
*211 net115
*212 net116
*213 net117
*214 net118
*215 net119
*216 net12
*217 net120
*218 net121
*219 net122
*220 net123
*221 net124
*222 net125
*223 net126
*224 net127
*225 net128
*226 net129
*227 net13
*228 net130
*229 net131
*230 net132
*231 net133
*232 net134
*233 net135
*234 net136
*235 net137
*236 net138
*237 net139
*238 net14
*239 net140
*240 net141
*241 net142
*242 net143
*243 net144
*244 net145
*245 net146
*246 net147
*247 net148
*248 net149
*249 net15
*250 net150
*251 net151
*252 net152
*253 net153
*254 net154
*255 net155
*256 net156
*257 net157
*258 net158
*259 net159
*260 net16
*261 net160
*262 net161
*263 net162
*264 net163
*265 net164
*266 net165
*267 net166
*268 net167
*269 net168
*270 net169
*271 net17
*272 net170
*273 net171
*274 net172
*275 net173
*276 net174
*277 net175
*278 net176
*279 net177
*280 net178
*281 net179
*282 net18
*283 net180
*284 net181
*285 net182
*286 net183
*287 net184
*288 net185
*289 net186
*290 net187
*291 net188
*292 net189
*293 net19
*294 net190
*295 net191
*296 net192
*297 net193
*298 net194
*299 net195
*300 net196
*301 net197
*302 net198
*303 net199
*304 net2
*305 net20
*306 net200
*307 net201
*308 net202
*309 net203
*310 net204
*311 net205
*312 net206
*313 net207
*314 net208
*315 net209
*316 net21
*317 net210
*318 net211
*319 net212
*320 net213
*321 net214
*322 net215
*323 net216
*324 net217
*325 net218
*326 net219
*327 net22
*328 net220
*329 net221
*330 net222
*331 net223
*332 net224
*333 net225
*334 net226
*335 net227
*336 net228
*337 net229
*338 net23
*339 net230
*340 net231
*341 net232
*342 net233
*343 net234
*344 net235
*345 net236
*346 net237
*347 net238
*348 net239
*349 net24
*350 net240
*351 net241
*352 net242
*353 net243
*354 net244
*355 net245
*356 net246
*357 net247
*358 net248
*359 net249
*360 net25
*361 net250
*362 net251
*363 net252
*364 net253
*365 net254
*366 net255
*367 net256
*368 net257
*369 net258
*370 net259
*371 net26
*372 net260
*373 net261
*374 net262
*375 net263
*376 net264
*377 net265
*378 net266
*379 net267
*380 net268
*381 net269
*382 net27
*383 net270
*384 net271
*385 net272
*386 net273
*387 net274
*388 net275
*389 net276
*390 net277
*391 net278
*392 net279
*393 net28
*394 net280
*395 net281
*396 net282
*397 net283
*398 net284
*399 net285
*400 net286
*401 net287
*402 net288
*403 net289
*404 net29
*405 net290
*406 net291
*407 net292
*408 net293
*409 net294
*410 net295
*411 net296
*412 net297
*413 net298
*414 net299
*415 net3
*416 net30
*417 net300
*418 net301
*419 net302
*420 net303
*421 net304
*422 net305
*423 net306
*424 net307
*425 net308
*426 net309
*427 net31
*428 net310
*429 net311
*430 net312
*431 net313
*432 net314
*433 net315
*434 net316
*435 net317
*436 net318
*437 net319
*438 net32
*439 net320
*440 net321
*441 net322
*442 net323
*443 net324
*444 net325
*445 net326
*446 net327
*447 net328
*448 net329
*449 net33
*450 net330
*451 net331
*452 net332
*453 net333
*454 net334
*455 net335
*456 net336
*457 net337
*458 net338
*459 net339
*460 net34
*461 net340
*462 net341
*463 net342
*464 net343
*465 net344
*466 net345
*467 net346
*468 net347
*469 net348
*470 net349
*471 net35
*472 net350
*473 net351
*474 net352
*475 net353
*476 net354
*477 net355
*478 net356
*479 net357
*480 net358
*481 net359
*482 net36
*483 net360
*484 net361
*485 net362
*486 net363
*487 net364
*488 net365
*489 net366
*490 net367
*491 net368
*492 net369
*493 net37
*494 net370
*495 net371
*496 net372
*497 net373
*498 net374
*499 net375
*500 net376
*501 net377
*502 net378
*503 net379
*504 net38
*505 net380
*506 net381
*507 net382
*508 net383
*509 net384
*510 net385
*511 net386
*512 net387
*513 net388
*514 net389
*515 net39
*516 net390
*517 net391
*518 net392
*519 net393
*520 net394
*521 net395
*522 net396
*523 net397
*524 net398
*525 net399
*526 net4
*527 net40
*528 net400
*529 net401
*530 net402
*531 net403
*532 net404
*533 net405
*534 net406
*535 net407
*536 net408
*537 net409
*538 net41
*539 net410
*540 net411
*541 net412
*542 net413
*543 net414
*544 net415
*545 net416
*546 net417
*547 net418
*548 net419
*549 net42
*550 net420
*551 net421
*552 net422
*553 net423
*554 net424
*555 net425
*556 net426
*557 net427
*558 net428
*559 net429
*560 net43
*561 net430
*562 net431
*563 net432
*564 net433
*565 net434
*566 net435
*567 net436
*568 net437
*569 net438
*570 net439
*571 net44
*572 net440
*573 net441
*574 net442
*575 net443
*576 net444
*577 net445
*578 net446
*579 net447
*580 net448
*581 net449
*582 net45
*583 net450
*584 net451
*585 net452
*586 net46
*587 net47
*588 net48
*589 net49
*590 net5
*591 net50
*592 net51
*593 net52
*594 net53
*595 net54
*596 net55
*597 net56
*598 net57
*599 net58
*600 net59
*601 net6
*602 net60
*603 net61
*604 net62
*605 net63
*606 net64
*607 net65
*608 net66
*609 net67
*610 net68
*611 net69
*612 net7
*613 net70
*614 net71
*615 net72
*616 net73
*617 net74
*618 net75
*619 net76
*620 net77
*621 net78
*622 net79
*623 net8
*624 net80
*625 net81
*626 net82
*627 net83
*628 net84
*629 net85
*630 net86
*631 net87
*632 net88
*633 net89
*634 net9
*635 net90
*636 net91
*637 net92
*638 net93
*639 net94
*640 net95
*641 net96
*642 ANTENNA__088__A_N
*643 ANTENNA__089__A_N
*644 ANTENNA__090__A_N
*645 ANTENNA__091__A_N
*646 ANTENNA__092__A_N
*647 ANTENNA__093__A_N
*648 ANTENNA__094__A_N
*649 ANTENNA__095__A_N
*650 ANTENNA__096__A_N
*651 ANTENNA__097__A_N
*652 ANTENNA__098__A_N
*653 ANTENNA__099__A_N
*654 ANTENNA__100__A_N
*655 ANTENNA__101__A_N
*656 ANTENNA__102__A_N
*657 ANTENNA__103__A_N
*658 ANTENNA__104__A_N
*659 ANTENNA__105__A_N
*660 ANTENNA__106__A_N
*661 ANTENNA__107__A_N
*662 ANTENNA__108__A_N
*663 ANTENNA__109__A_N
*664 ANTENNA__110__A_N
*665 ANTENNA__111__A_N
*666 ANTENNA__112__A_N
*667 ANTENNA__113__A_N
*668 ANTENNA__114__A_N
*669 ANTENNA__115__A_N
*670 ANTENNA__116__A_N
*671 ANTENNA__117__A_N
*672 ANTENNA__118__A_N
*673 ANTENNA__119__A_N
*674 ANTENNA__120__A_N
*675 ANTENNA__121__A_N
*676 ANTENNA__122__A_N
*677 ANTENNA__123__A_N
*678 ANTENNA__124__A_N
*679 ANTENNA__125__A_N
*680 ANTENNA__126__A_N
*681 ANTENNA__127__A_N
*682 ANTENNA__128__A_N
*683 ANTENNA__129__A_N
*684 ANTENNA__130__A_N
*685 ANTENNA__131__A_N
*686 ANTENNA__131__B
*687 ANTENNA__132__A_N
*688 ANTENNA__133__A_N
*689 ANTENNA__134__A_N
*690 ANTENNA__135__A_N
*691 ANTENNA__136__A_N
*692 ANTENNA__137__A_N
*693 ANTENNA__138__A_N
*694 ANTENNA__139__A_N
*695 ANTENNA__140__A_N
*696 ANTENNA__141__A_N
*697 ANTENNA__151__A_N
*698 ANTENNA__152__A_N
*699 ANTENNA__153__A_N
*700 ANTENNA__154__A_N
*701 ANTENNA__155__A_N
*702 ANTENNA__156__A_N
*703 ANTENNA__157__A_N
*704 ANTENNA__158__A_N
*705 ANTENNA__161__A_N
*706 ANTENNA__162__A_N
*707 ANTENNA__163__A_N
*708 ANTENNA__164__A_N
*709 ANTENNA__165__A_N
*710 ANTENNA__166__A_N
*711 ANTENNA__167__A_N
*712 ANTENNA__173__A_N
*713 ANTENNA__174__A_N
*714 ANTENNA__175__A_N
*715 ANTENNA__179__CLK
*716 ANTENNA__180__CLK
*717 ANTENNA__181__CLK
*718 ANTENNA__182__CLK
*719 ANTENNA__183__CLK
*720 ANTENNA__184__CLK
*721 ANTENNA__185__CLK
*722 ANTENNA__189__CLK
*723 ANTENNA__190__CLK
*724 ANTENNA__191__CLK
*725 ANTENNA__192__CLK
*726 ANTENNA__193__CLK
*727 ANTENNA__194__CLK
*728 ANTENNA__195__CLK
*729 ANTENNA__219__CLK
*730 ANTENNA__250__CLK
*731 ANTENNA__251__CLK
*732 ANTENNA__252__CLK
*733 ANTENNA_clkbuf_3_0__f_wb_clk_i_A
*734 ANTENNA_clkbuf_3_1__f_wb_clk_i_A
*735 ANTENNA_clkbuf_3_2__f_wb_clk_i_A
*736 ANTENNA_clkbuf_3_3__f_wb_clk_i_A
*737 ANTENNA_clkbuf_3_4__f_wb_clk_i_A
*738 ANTENNA_clkbuf_3_5__f_wb_clk_i_A
*739 ANTENNA_clkbuf_3_6__f_wb_clk_i_A
*740 ANTENNA_clkbuf_3_7__f_wb_clk_i_A
*741 ANTENNA_fanout90_A
*742 ANTENNA_fanout91_A
*743 ANTENNA_fanout92_A
*744 ANTENNA_fanout93_A
*745 ANTENNA_fanout94_A
*746 ANTENNA_fanout95_A
*747 ANTENNA_hold330_A
*748 FILLER_0_0_113
*749 FILLER_0_0_141
*750 FILLER_0_0_177
*751 FILLER_0_0_19
*752 FILLER_0_0_221
*753 FILLER_0_0_23
*754 FILLER_0_0_234
*755 FILLER_0_0_246
*756 FILLER_0_0_269
*757 FILLER_0_0_27
*758 FILLER_0_0_29
*759 FILLER_0_0_3
*760 FILLER_0_0_305
*761 FILLER_0_0_333
*762 FILLER_0_0_346
*763 FILLER_0_0_350
*764 FILLER_0_0_361
*765 FILLER_0_0_389
*766 FILLER_0_0_57
*767 FILLER_0_0_65
*768 FILLER_0_0_85
*769 FILLER_0_0_9
*770 FILLER_0_0_91
*771 FILLER_0_0_95
*772 FILLER_0_10_121
*773 FILLER_0_10_125
*774 FILLER_0_10_137
*775 FILLER_0_10_141
*776 FILLER_0_10_153
*777 FILLER_0_10_165
*778 FILLER_0_10_177
*779 FILLER_0_10_189
*780 FILLER_0_10_195
*781 FILLER_0_10_205
*782 FILLER_0_10_217
*783 FILLER_0_10_229
*784 FILLER_0_10_241
*785 FILLER_0_10_249
*786 FILLER_0_10_25
*787 FILLER_0_10_253
*788 FILLER_0_10_265
*789 FILLER_0_10_277
*790 FILLER_0_10_289
*791 FILLER_0_10_3
*792 FILLER_0_10_301
*793 FILLER_0_10_307
*794 FILLER_0_10_309
*795 FILLER_0_10_321
*796 FILLER_0_10_333
*797 FILLER_0_10_345
*798 FILLER_0_10_353
*799 FILLER_0_10_37
*800 FILLER_0_10_395
*801 FILLER_0_10_49
*802 FILLER_0_10_61
*803 FILLER_0_10_73
*804 FILLER_0_10_81
*805 FILLER_0_10_85
*806 FILLER_0_10_97
*807 FILLER_0_11_105
*808 FILLER_0_11_111
*809 FILLER_0_11_113
*810 FILLER_0_11_125
*811 FILLER_0_11_137
*812 FILLER_0_11_149
*813 FILLER_0_11_161
*814 FILLER_0_11_167
*815 FILLER_0_11_169
*816 FILLER_0_11_181
*817 FILLER_0_11_193
*818 FILLER_0_11_205
*819 FILLER_0_11_217
*820 FILLER_0_11_223
*821 FILLER_0_11_225
*822 FILLER_0_11_237
*823 FILLER_0_11_249
*824 FILLER_0_11_25
*825 FILLER_0_11_261
*826 FILLER_0_11_273
*827 FILLER_0_11_279
*828 FILLER_0_11_281
*829 FILLER_0_11_29
*830 FILLER_0_11_293
*831 FILLER_0_11_305
*832 FILLER_0_11_317
*833 FILLER_0_11_329
*834 FILLER_0_11_335
*835 FILLER_0_11_337
*836 FILLER_0_11_349
*837 FILLER_0_11_361
*838 FILLER_0_11_393
*839 FILLER_0_11_41
*840 FILLER_0_11_53
*841 FILLER_0_11_57
*842 FILLER_0_11_69
*843 FILLER_0_11_81
*844 FILLER_0_11_93
*845 FILLER_0_12_109
*846 FILLER_0_12_121
*847 FILLER_0_12_133
*848 FILLER_0_12_139
*849 FILLER_0_12_141
*850 FILLER_0_12_153
*851 FILLER_0_12_165
*852 FILLER_0_12_177
*853 FILLER_0_12_189
*854 FILLER_0_12_195
*855 FILLER_0_12_197
*856 FILLER_0_12_209
*857 FILLER_0_12_221
*858 FILLER_0_12_233
*859 FILLER_0_12_245
*860 FILLER_0_12_251
*861 FILLER_0_12_253
*862 FILLER_0_12_265
*863 FILLER_0_12_27
*864 FILLER_0_12_277
*865 FILLER_0_12_289
*866 FILLER_0_12_29
*867 FILLER_0_12_3
*868 FILLER_0_12_301
*869 FILLER_0_12_307
*870 FILLER_0_12_309
*871 FILLER_0_12_321
*872 FILLER_0_12_333
*873 FILLER_0_12_345
*874 FILLER_0_12_357
*875 FILLER_0_12_363
*876 FILLER_0_12_365
*877 FILLER_0_12_370
*878 FILLER_0_12_389
*879 FILLER_0_12_395
*880 FILLER_0_12_41
*881 FILLER_0_12_53
*882 FILLER_0_12_65
*883 FILLER_0_12_77
*884 FILLER_0_12_83
*885 FILLER_0_12_85
*886 FILLER_0_12_9
*887 FILLER_0_12_97
*888 FILLER_0_13_105
*889 FILLER_0_13_111
*890 FILLER_0_13_113
*891 FILLER_0_13_125
*892 FILLER_0_13_137
*893 FILLER_0_13_149
*894 FILLER_0_13_161
*895 FILLER_0_13_167
*896 FILLER_0_13_169
*897 FILLER_0_13_181
*898 FILLER_0_13_193
*899 FILLER_0_13_205
*900 FILLER_0_13_217
*901 FILLER_0_13_223
*902 FILLER_0_13_225
*903 FILLER_0_13_237
*904 FILLER_0_13_249
*905 FILLER_0_13_261
*906 FILLER_0_13_273
*907 FILLER_0_13_279
*908 FILLER_0_13_281
*909 FILLER_0_13_293
*910 FILLER_0_13_3
*911 FILLER_0_13_305
*912 FILLER_0_13_317
*913 FILLER_0_13_329
*914 FILLER_0_13_33
*915 FILLER_0_13_335
*916 FILLER_0_13_337
*917 FILLER_0_13_349
*918 FILLER_0_13_361
*919 FILLER_0_13_389
*920 FILLER_0_13_393
*921 FILLER_0_13_45
*922 FILLER_0_13_53
*923 FILLER_0_13_57
*924 FILLER_0_13_69
*925 FILLER_0_13_81
*926 FILLER_0_13_93
*927 FILLER_0_14_109
*928 FILLER_0_14_121
*929 FILLER_0_14_133
*930 FILLER_0_14_139
*931 FILLER_0_14_141
*932 FILLER_0_14_153
*933 FILLER_0_14_165
*934 FILLER_0_14_171
*935 FILLER_0_14_177
*936 FILLER_0_14_189
*937 FILLER_0_14_195
*938 FILLER_0_14_197
*939 FILLER_0_14_209
*940 FILLER_0_14_221
*941 FILLER_0_14_233
*942 FILLER_0_14_245
*943 FILLER_0_14_251
*944 FILLER_0_14_253
*945 FILLER_0_14_265
*946 FILLER_0_14_27
*947 FILLER_0_14_277
*948 FILLER_0_14_289
*949 FILLER_0_14_301
*950 FILLER_0_14_307
*951 FILLER_0_14_309
*952 FILLER_0_14_321
*953 FILLER_0_14_347
*954 FILLER_0_14_359
*955 FILLER_0_14_365
*956 FILLER_0_14_37
*957 FILLER_0_14_49
*958 FILLER_0_14_61
*959 FILLER_0_14_71
*960 FILLER_0_14_83
*961 FILLER_0_14_85
*962 FILLER_0_14_97
*963 FILLER_0_15_105
*964 FILLER_0_15_111
*965 FILLER_0_15_113
*966 FILLER_0_15_125
*967 FILLER_0_15_137
*968 FILLER_0_15_149
*969 FILLER_0_15_161
*970 FILLER_0_15_167
*971 FILLER_0_15_169
*972 FILLER_0_15_183
*973 FILLER_0_15_195
*974 FILLER_0_15_207
*975 FILLER_0_15_219
*976 FILLER_0_15_223
*977 FILLER_0_15_225
*978 FILLER_0_15_237
*979 FILLER_0_15_249
*980 FILLER_0_15_261
*981 FILLER_0_15_273
*982 FILLER_0_15_279
*983 FILLER_0_15_281
*984 FILLER_0_15_293
*985 FILLER_0_15_3
*986 FILLER_0_15_301
*987 FILLER_0_15_310
*988 FILLER_0_15_322
*989 FILLER_0_15_33
*990 FILLER_0_15_334
*991 FILLER_0_15_337
*992 FILLER_0_15_349
*993 FILLER_0_15_361
*994 FILLER_0_15_367
*995 FILLER_0_15_37
*996 FILLER_0_15_385
*997 FILLER_0_15_391
*998 FILLER_0_15_393
*999 FILLER_0_15_49
*1000 FILLER_0_15_55
*1001 FILLER_0_15_57
*1002 FILLER_0_15_69
*1003 FILLER_0_15_81
*1004 FILLER_0_15_9
*1005 FILLER_0_15_93
*1006 FILLER_0_16_109
*1007 FILLER_0_16_121
*1008 FILLER_0_16_133
*1009 FILLER_0_16_139
*1010 FILLER_0_16_141
*1011 FILLER_0_16_153
*1012 FILLER_0_16_165
*1013 FILLER_0_16_177
*1014 FILLER_0_16_189
*1015 FILLER_0_16_195
*1016 FILLER_0_16_197
*1017 FILLER_0_16_209
*1018 FILLER_0_16_221
*1019 FILLER_0_16_233
*1020 FILLER_0_16_245
*1021 FILLER_0_16_25
*1022 FILLER_0_16_251
*1023 FILLER_0_16_253
*1024 FILLER_0_16_265
*1025 FILLER_0_16_277
*1026 FILLER_0_16_289
*1027 FILLER_0_16_3
*1028 FILLER_0_16_301
*1029 FILLER_0_16_307
*1030 FILLER_0_16_309
*1031 FILLER_0_16_321
*1032 FILLER_0_16_333
*1033 FILLER_0_16_345
*1034 FILLER_0_16_357
*1035 FILLER_0_16_363
*1036 FILLER_0_16_37
*1037 FILLER_0_16_389
*1038 FILLER_0_16_395
*1039 FILLER_0_16_49
*1040 FILLER_0_16_61
*1041 FILLER_0_16_73
*1042 FILLER_0_16_81
*1043 FILLER_0_16_85
*1044 FILLER_0_16_97
*1045 FILLER_0_17_105
*1046 FILLER_0_17_111
*1047 FILLER_0_17_113
*1048 FILLER_0_17_125
*1049 FILLER_0_17_137
*1050 FILLER_0_17_149
*1051 FILLER_0_17_161
*1052 FILLER_0_17_167
*1053 FILLER_0_17_169
*1054 FILLER_0_17_181
*1055 FILLER_0_17_193
*1056 FILLER_0_17_205
*1057 FILLER_0_17_217
*1058 FILLER_0_17_223
*1059 FILLER_0_17_225
*1060 FILLER_0_17_237
*1061 FILLER_0_17_249
*1062 FILLER_0_17_261
*1063 FILLER_0_17_273
*1064 FILLER_0_17_279
*1065 FILLER_0_17_281
*1066 FILLER_0_17_293
*1067 FILLER_0_17_305
*1068 FILLER_0_17_317
*1069 FILLER_0_17_329
*1070 FILLER_0_17_33
*1071 FILLER_0_17_335
*1072 FILLER_0_17_337
*1073 FILLER_0_17_349
*1074 FILLER_0_17_361
*1075 FILLER_0_17_37
*1076 FILLER_0_17_393
*1077 FILLER_0_17_49
*1078 FILLER_0_17_55
*1079 FILLER_0_17_57
*1080 FILLER_0_17_69
*1081 FILLER_0_17_81
*1082 FILLER_0_17_93
*1083 FILLER_0_18_109
*1084 FILLER_0_18_121
*1085 FILLER_0_18_133
*1086 FILLER_0_18_139
*1087 FILLER_0_18_141
*1088 FILLER_0_18_153
*1089 FILLER_0_18_165
*1090 FILLER_0_18_177
*1091 FILLER_0_18_189
*1092 FILLER_0_18_195
*1093 FILLER_0_18_197
*1094 FILLER_0_18_209
*1095 FILLER_0_18_221
*1096 FILLER_0_18_233
*1097 FILLER_0_18_245
*1098 FILLER_0_18_251
*1099 FILLER_0_18_253
*1100 FILLER_0_18_265
*1101 FILLER_0_18_27
*1102 FILLER_0_18_277
*1103 FILLER_0_18_289
*1104 FILLER_0_18_29
*1105 FILLER_0_18_3
*1106 FILLER_0_18_301
*1107 FILLER_0_18_307
*1108 FILLER_0_18_309
*1109 FILLER_0_18_321
*1110 FILLER_0_18_333
*1111 FILLER_0_18_345
*1112 FILLER_0_18_357
*1113 FILLER_0_18_363
*1114 FILLER_0_18_365
*1115 FILLER_0_18_370
*1116 FILLER_0_18_389
*1117 FILLER_0_18_395
*1118 FILLER_0_18_41
*1119 FILLER_0_18_53
*1120 FILLER_0_18_65
*1121 FILLER_0_18_77
*1122 FILLER_0_18_83
*1123 FILLER_0_18_85
*1124 FILLER_0_18_9
*1125 FILLER_0_18_97
*1126 FILLER_0_19_105
*1127 FILLER_0_19_111
*1128 FILLER_0_19_113
*1129 FILLER_0_19_125
*1130 FILLER_0_19_137
*1131 FILLER_0_19_141
*1132 FILLER_0_19_158
*1133 FILLER_0_19_166
*1134 FILLER_0_19_169
*1135 FILLER_0_19_181
*1136 FILLER_0_19_193
*1137 FILLER_0_19_205
*1138 FILLER_0_19_217
*1139 FILLER_0_19_223
*1140 FILLER_0_19_225
*1141 FILLER_0_19_237
*1142 FILLER_0_19_249
*1143 FILLER_0_19_261
*1144 FILLER_0_19_273
*1145 FILLER_0_19_279
*1146 FILLER_0_19_281
*1147 FILLER_0_19_293
*1148 FILLER_0_19_3
*1149 FILLER_0_19_305
*1150 FILLER_0_19_317
*1151 FILLER_0_19_329
*1152 FILLER_0_19_33
*1153 FILLER_0_19_335
*1154 FILLER_0_19_337
*1155 FILLER_0_19_349
*1156 FILLER_0_19_361
*1157 FILLER_0_19_389
*1158 FILLER_0_19_393
*1159 FILLER_0_19_45
*1160 FILLER_0_19_53
*1161 FILLER_0_19_57
*1162 FILLER_0_19_69
*1163 FILLER_0_19_81
*1164 FILLER_0_19_93
*1165 FILLER_0_1_102
*1166 FILLER_0_1_113
*1167 FILLER_0_1_120
*1168 FILLER_0_1_124
*1169 FILLER_0_1_136
*1170 FILLER_0_1_142
*1171 FILLER_0_1_161
*1172 FILLER_0_1_167
*1173 FILLER_0_1_199
*1174 FILLER_0_1_209
*1175 FILLER_0_1_213
*1176 FILLER_0_1_22
*1177 FILLER_0_1_221
*1178 FILLER_0_1_250
*1179 FILLER_0_1_273
*1180 FILLER_0_1_306
*1181 FILLER_0_1_310
*1182 FILLER_0_1_322
*1183 FILLER_0_1_326
*1184 FILLER_0_1_335
*1185 FILLER_0_1_34
*1186 FILLER_0_1_346
*1187 FILLER_0_1_350
*1188 FILLER_0_1_375
*1189 FILLER_0_1_385
*1190 FILLER_0_1_389
*1191 FILLER_0_1_393
*1192 FILLER_0_1_46
*1193 FILLER_0_1_54
*1194 FILLER_0_1_57
*1195 FILLER_0_1_63
*1196 FILLER_0_1_80
*1197 FILLER_0_1_86
*1198 FILLER_0_1_96
*1199 FILLER_0_20_109
*1200 FILLER_0_20_121
*1201 FILLER_0_20_133
*1202 FILLER_0_20_139
*1203 FILLER_0_20_141
*1204 FILLER_0_20_153
*1205 FILLER_0_20_165
*1206 FILLER_0_20_177
*1207 FILLER_0_20_189
*1208 FILLER_0_20_195
*1209 FILLER_0_20_197
*1210 FILLER_0_20_209
*1211 FILLER_0_20_221
*1212 FILLER_0_20_233
*1213 FILLER_0_20_247
*1214 FILLER_0_20_251
*1215 FILLER_0_20_253
*1216 FILLER_0_20_265
*1217 FILLER_0_20_27
*1218 FILLER_0_20_271
*1219 FILLER_0_20_283
*1220 FILLER_0_20_295
*1221 FILLER_0_20_307
*1222 FILLER_0_20_309
*1223 FILLER_0_20_321
*1224 FILLER_0_20_333
*1225 FILLER_0_20_345
*1226 FILLER_0_20_357
*1227 FILLER_0_20_361
*1228 FILLER_0_20_365
*1229 FILLER_0_20_37
*1230 FILLER_0_20_49
*1231 FILLER_0_20_57
*1232 FILLER_0_20_67
*1233 FILLER_0_20_79
*1234 FILLER_0_20_83
*1235 FILLER_0_20_85
*1236 FILLER_0_20_97
*1237 FILLER_0_21_105
*1238 FILLER_0_21_111
*1239 FILLER_0_21_113
*1240 FILLER_0_21_125
*1241 FILLER_0_21_137
*1242 FILLER_0_21_149
*1243 FILLER_0_21_161
*1244 FILLER_0_21_167
*1245 FILLER_0_21_169
*1246 FILLER_0_21_181
*1247 FILLER_0_21_193
*1248 FILLER_0_21_205
*1249 FILLER_0_21_217
*1250 FILLER_0_21_223
*1251 FILLER_0_21_225
*1252 FILLER_0_21_237
*1253 FILLER_0_21_249
*1254 FILLER_0_21_261
*1255 FILLER_0_21_271
*1256 FILLER_0_21_279
*1257 FILLER_0_21_281
*1258 FILLER_0_21_293
*1259 FILLER_0_21_3
*1260 FILLER_0_21_305
*1261 FILLER_0_21_317
*1262 FILLER_0_21_329
*1263 FILLER_0_21_33
*1264 FILLER_0_21_335
*1265 FILLER_0_21_337
*1266 FILLER_0_21_349
*1267 FILLER_0_21_361
*1268 FILLER_0_21_367
*1269 FILLER_0_21_37
*1270 FILLER_0_21_385
*1271 FILLER_0_21_391
*1272 FILLER_0_21_393
*1273 FILLER_0_21_49
*1274 FILLER_0_21_55
*1275 FILLER_0_21_57
*1276 FILLER_0_21_69
*1277 FILLER_0_21_81
*1278 FILLER_0_21_9
*1279 FILLER_0_21_93
*1280 FILLER_0_22_109
*1281 FILLER_0_22_121
*1282 FILLER_0_22_133
*1283 FILLER_0_22_139
*1284 FILLER_0_22_141
*1285 FILLER_0_22_153
*1286 FILLER_0_22_165
*1287 FILLER_0_22_177
*1288 FILLER_0_22_189
*1289 FILLER_0_22_195
*1290 FILLER_0_22_197
*1291 FILLER_0_22_209
*1292 FILLER_0_22_221
*1293 FILLER_0_22_233
*1294 FILLER_0_22_245
*1295 FILLER_0_22_25
*1296 FILLER_0_22_251
*1297 FILLER_0_22_253
*1298 FILLER_0_22_265
*1299 FILLER_0_22_277
*1300 FILLER_0_22_289
*1301 FILLER_0_22_3
*1302 FILLER_0_22_301
*1303 FILLER_0_22_307
*1304 FILLER_0_22_309
*1305 FILLER_0_22_321
*1306 FILLER_0_22_333
*1307 FILLER_0_22_345
*1308 FILLER_0_22_357
*1309 FILLER_0_22_363
*1310 FILLER_0_22_37
*1311 FILLER_0_22_389
*1312 FILLER_0_22_395
*1313 FILLER_0_22_49
*1314 FILLER_0_22_61
*1315 FILLER_0_22_73
*1316 FILLER_0_22_81
*1317 FILLER_0_22_85
*1318 FILLER_0_22_97
*1319 FILLER_0_23_105
*1320 FILLER_0_23_111
*1321 FILLER_0_23_113
*1322 FILLER_0_23_125
*1323 FILLER_0_23_137
*1324 FILLER_0_23_149
*1325 FILLER_0_23_161
*1326 FILLER_0_23_167
*1327 FILLER_0_23_169
*1328 FILLER_0_23_181
*1329 FILLER_0_23_193
*1330 FILLER_0_23_205
*1331 FILLER_0_23_217
*1332 FILLER_0_23_223
*1333 FILLER_0_23_225
*1334 FILLER_0_23_229
*1335 FILLER_0_23_241
*1336 FILLER_0_23_253
*1337 FILLER_0_23_265
*1338 FILLER_0_23_277
*1339 FILLER_0_23_281
*1340 FILLER_0_23_293
*1341 FILLER_0_23_305
*1342 FILLER_0_23_317
*1343 FILLER_0_23_329
*1344 FILLER_0_23_33
*1345 FILLER_0_23_335
*1346 FILLER_0_23_337
*1347 FILLER_0_23_349
*1348 FILLER_0_23_361
*1349 FILLER_0_23_37
*1350 FILLER_0_23_393
*1351 FILLER_0_23_49
*1352 FILLER_0_23_55
*1353 FILLER_0_23_57
*1354 FILLER_0_23_69
*1355 FILLER_0_23_81
*1356 FILLER_0_23_93
*1357 FILLER_0_24_109
*1358 FILLER_0_24_115
*1359 FILLER_0_24_122
*1360 FILLER_0_24_126
*1361 FILLER_0_24_138
*1362 FILLER_0_24_141
*1363 FILLER_0_24_153
*1364 FILLER_0_24_165
*1365 FILLER_0_24_177
*1366 FILLER_0_24_189
*1367 FILLER_0_24_195
*1368 FILLER_0_24_197
*1369 FILLER_0_24_209
*1370 FILLER_0_24_235
*1371 FILLER_0_24_247
*1372 FILLER_0_24_25
*1373 FILLER_0_24_251
*1374 FILLER_0_24_253
*1375 FILLER_0_24_265
*1376 FILLER_0_24_277
*1377 FILLER_0_24_289
*1378 FILLER_0_24_29
*1379 FILLER_0_24_3
*1380 FILLER_0_24_301
*1381 FILLER_0_24_307
*1382 FILLER_0_24_309
*1383 FILLER_0_24_321
*1384 FILLER_0_24_33
*1385 FILLER_0_24_333
*1386 FILLER_0_24_345
*1387 FILLER_0_24_357
*1388 FILLER_0_24_363
*1389 FILLER_0_24_365
*1390 FILLER_0_24_37
*1391 FILLER_0_24_370
*1392 FILLER_0_24_389
*1393 FILLER_0_24_395
*1394 FILLER_0_24_49
*1395 FILLER_0_24_61
*1396 FILLER_0_24_73
*1397 FILLER_0_24_81
*1398 FILLER_0_24_85
*1399 FILLER_0_24_9
*1400 FILLER_0_24_97
*1401 FILLER_0_25_105
*1402 FILLER_0_25_111
*1403 FILLER_0_25_113
*1404 FILLER_0_25_125
*1405 FILLER_0_25_133
*1406 FILLER_0_25_137
*1407 FILLER_0_25_149
*1408 FILLER_0_25_161
*1409 FILLER_0_25_167
*1410 FILLER_0_25_169
*1411 FILLER_0_25_181
*1412 FILLER_0_25_193
*1413 FILLER_0_25_205
*1414 FILLER_0_25_223
*1415 FILLER_0_25_241
*1416 FILLER_0_25_245
*1417 FILLER_0_25_257
*1418 FILLER_0_25_269
*1419 FILLER_0_25_27
*1420 FILLER_0_25_277
*1421 FILLER_0_25_281
*1422 FILLER_0_25_293
*1423 FILLER_0_25_3
*1424 FILLER_0_25_305
*1425 FILLER_0_25_317
*1426 FILLER_0_25_329
*1427 FILLER_0_25_335
*1428 FILLER_0_25_337
*1429 FILLER_0_25_349
*1430 FILLER_0_25_35
*1431 FILLER_0_25_361
*1432 FILLER_0_25_389
*1433 FILLER_0_25_39
*1434 FILLER_0_25_393
*1435 FILLER_0_25_51
*1436 FILLER_0_25_55
*1437 FILLER_0_25_57
*1438 FILLER_0_25_69
*1439 FILLER_0_25_81
*1440 FILLER_0_25_9
*1441 FILLER_0_25_93
*1442 FILLER_0_26_109
*1443 FILLER_0_26_121
*1444 FILLER_0_26_133
*1445 FILLER_0_26_139
*1446 FILLER_0_26_141
*1447 FILLER_0_26_153
*1448 FILLER_0_26_172
*1449 FILLER_0_26_184
*1450 FILLER_0_26_197
*1451 FILLER_0_26_205
*1452 FILLER_0_26_215
*1453 FILLER_0_26_223
*1454 FILLER_0_26_227
*1455 FILLER_0_26_231
*1456 FILLER_0_26_243
*1457 FILLER_0_26_251
*1458 FILLER_0_26_253
*1459 FILLER_0_26_265
*1460 FILLER_0_26_27
*1461 FILLER_0_26_277
*1462 FILLER_0_26_289
*1463 FILLER_0_26_301
*1464 FILLER_0_26_307
*1465 FILLER_0_26_309
*1466 FILLER_0_26_321
*1467 FILLER_0_26_333
*1468 FILLER_0_26_345
*1469 FILLER_0_26_357
*1470 FILLER_0_26_361
*1471 FILLER_0_26_365
*1472 FILLER_0_26_37
*1473 FILLER_0_26_55
*1474 FILLER_0_26_67
*1475 FILLER_0_26_79
*1476 FILLER_0_26_83
*1477 FILLER_0_26_85
*1478 FILLER_0_26_97
*1479 FILLER_0_27_105
*1480 FILLER_0_27_111
*1481 FILLER_0_27_113
*1482 FILLER_0_27_125
*1483 FILLER_0_27_137
*1484 FILLER_0_27_149
*1485 FILLER_0_27_161
*1486 FILLER_0_27_167
*1487 FILLER_0_27_169
*1488 FILLER_0_27_181
*1489 FILLER_0_27_193
*1490 FILLER_0_27_205
*1491 FILLER_0_27_213
*1492 FILLER_0_27_217
*1493 FILLER_0_27_223
*1494 FILLER_0_27_225
*1495 FILLER_0_27_237
*1496 FILLER_0_27_249
*1497 FILLER_0_27_261
*1498 FILLER_0_27_273
*1499 FILLER_0_27_279
*1500 FILLER_0_27_281
*1501 FILLER_0_27_293
*1502 FILLER_0_27_3
*1503 FILLER_0_27_305
*1504 FILLER_0_27_317
*1505 FILLER_0_27_329
*1506 FILLER_0_27_335
*1507 FILLER_0_27_337
*1508 FILLER_0_27_349
*1509 FILLER_0_27_361
*1510 FILLER_0_27_367
*1511 FILLER_0_27_385
*1512 FILLER_0_27_391
*1513 FILLER_0_27_393
*1514 FILLER_0_27_43
*1515 FILLER_0_27_55
*1516 FILLER_0_27_57
*1517 FILLER_0_27_69
*1518 FILLER_0_27_81
*1519 FILLER_0_27_9
*1520 FILLER_0_27_93
*1521 FILLER_0_28_109
*1522 FILLER_0_28_121
*1523 FILLER_0_28_133
*1524 FILLER_0_28_139
*1525 FILLER_0_28_141
*1526 FILLER_0_28_153
*1527 FILLER_0_28_165
*1528 FILLER_0_28_177
*1529 FILLER_0_28_189
*1530 FILLER_0_28_195
*1531 FILLER_0_28_197
*1532 FILLER_0_28_209
*1533 FILLER_0_28_221
*1534 FILLER_0_28_233
*1535 FILLER_0_28_245
*1536 FILLER_0_28_251
*1537 FILLER_0_28_253
*1538 FILLER_0_28_265
*1539 FILLER_0_28_27
*1540 FILLER_0_28_277
*1541 FILLER_0_28_281
*1542 FILLER_0_28_288
*1543 FILLER_0_28_292
*1544 FILLER_0_28_304
*1545 FILLER_0_28_309
*1546 FILLER_0_28_321
*1547 FILLER_0_28_333
*1548 FILLER_0_28_345
*1549 FILLER_0_28_353
*1550 FILLER_0_28_37
*1551 FILLER_0_28_389
*1552 FILLER_0_28_395
*1553 FILLER_0_28_49
*1554 FILLER_0_28_61
*1555 FILLER_0_28_69
*1556 FILLER_0_28_78
*1557 FILLER_0_28_85
*1558 FILLER_0_28_97
*1559 FILLER_0_29_105
*1560 FILLER_0_29_111
*1561 FILLER_0_29_113
*1562 FILLER_0_29_125
*1563 FILLER_0_29_137
*1564 FILLER_0_29_149
*1565 FILLER_0_29_161
*1566 FILLER_0_29_167
*1567 FILLER_0_29_169
*1568 FILLER_0_29_181
*1569 FILLER_0_29_193
*1570 FILLER_0_29_205
*1571 FILLER_0_29_217
*1572 FILLER_0_29_223
*1573 FILLER_0_29_233
*1574 FILLER_0_29_245
*1575 FILLER_0_29_251
*1576 FILLER_0_29_263
*1577 FILLER_0_29_275
*1578 FILLER_0_29_279
*1579 FILLER_0_29_281
*1580 FILLER_0_29_293
*1581 FILLER_0_29_3
*1582 FILLER_0_29_305
*1583 FILLER_0_29_317
*1584 FILLER_0_29_329
*1585 FILLER_0_29_335
*1586 FILLER_0_29_337
*1587 FILLER_0_29_34
*1588 FILLER_0_29_349
*1589 FILLER_0_29_357
*1590 FILLER_0_29_38
*1591 FILLER_0_29_385
*1592 FILLER_0_29_389
*1593 FILLER_0_29_393
*1594 FILLER_0_29_50
*1595 FILLER_0_29_57
*1596 FILLER_0_29_69
*1597 FILLER_0_29_81
*1598 FILLER_0_29_93
*1599 FILLER_0_2_137
*1600 FILLER_0_2_141
*1601 FILLER_0_2_145
*1602 FILLER_0_2_19
*1603 FILLER_0_2_194
*1604 FILLER_0_2_205
*1605 FILLER_0_2_217
*1606 FILLER_0_2_229
*1607 FILLER_0_2_241
*1608 FILLER_0_2_249
*1609 FILLER_0_2_253
*1610 FILLER_0_2_27
*1611 FILLER_0_2_272
*1612 FILLER_0_2_276
*1613 FILLER_0_2_29
*1614 FILLER_0_2_304
*1615 FILLER_0_2_363
*1616 FILLER_0_2_395
*1617 FILLER_0_2_41
*1618 FILLER_0_2_53
*1619 FILLER_0_2_68
*1620 FILLER_0_2_74
*1621 FILLER_0_2_85
*1622 FILLER_0_2_93
*1623 FILLER_0_30_109
*1624 FILLER_0_30_121
*1625 FILLER_0_30_133
*1626 FILLER_0_30_139
*1627 FILLER_0_30_141
*1628 FILLER_0_30_153