*SPEF "ieee 1481-1999"
*DESIGN "unused_tie"
*DATE "11:11:11 Fri 11 11, 1111"
*VENDOR "OpenRCX"
*PROGRAM "Parallel Extraction"
*VERSION "1.0"
*DESIGN_FLOW "NAME_SCOPE LOCAL" "PIN_CAP NONE"
*DIVIDER /
*DELIMITER :
*BUS_DELIMITER []
*T_UNIT 1 NS
*C_UNIT 1 PF
*R_UNIT 1 OHM
*L_UNIT 1 HENRY

*NAME_MAP
*1 net97
*2 net98
*3 net99
*4 la_data_out[0]
*5 la_data_out[10]
*6 la_data_out[11]
*7 la_data_out[12]
*8 la_data_out[13]
*9 la_data_out[14]
*10 la_data_out[15]
*11 la_data_out[16]
*12 la_data_out[17]
*13 la_data_out[18]
*14 la_data_out[19]
*15 la_data_out[1]
*16 la_data_out[20]
*17 la_data_out[21]
*18 la_data_out[22]
*19 la_data_out[23]
*20 la_data_out[24]
*21 la_data_out[25]
*22 la_data_out[26]
*23 la_data_out[27]
*24 la_data_out[28]
*25 la_data_out[29]
*26 la_data_out[2]
*27 la_data_out[30]
*28 la_data_out[31]
*29 la_data_out[32]
*30 la_data_out[33]
*31 la_data_out[34]
*32 la_data_out[35]
*33 la_data_out[36]
*34 la_data_out[37]
*35 la_data_out[38]
*36 la_data_out[39]
*37 la_data_out[3]
*38 la_data_out[40]
*39 la_data_out[41]
*40 la_data_out[42]
*41 la_data_out[43]
*42 la_data_out[44]
*43 la_data_out[45]
*44 la_data_out[46]
*45 la_data_out[47]
*46 la_data_out[48]
*47 la_data_out[49]
*48 la_data_out[4]
*49 la_data_out[50]
*50 la_data_out[51]
*51 la_data_out[52]
*52 la_data_out[53]
*53 la_data_out[54]
*54 la_data_out[55]
*55 la_data_out[56]
*56 la_data_out[57]
*57 la_data_out[58]
*58 la_data_out[59]
*59 la_data_out[5]
*60 la_data_out[60]
*61 la_data_out[61]
*62 la_data_out[62]
*63 la_data_out[63]
*64 la_data_out[64]
*65 la_data_out[65]
*66 la_data_out[66]
*67 la_data_out[67]
*68 la_data_out[68]
*69 la_data_out[69]
*70 la_data_out[6]
*71 la_data_out[70]
*72 la_data_out[71]
*73 la_data_out[72]
*74 la_data_out[73]
*75 la_data_out[74]
*76 la_data_out[75]
*77 la_data_out[76]
*78 la_data_out[77]
*79 la_data_out[78]
*80 la_data_out[79]
*81 la_data_out[7]
*82 la_data_out[80]
*83 la_data_out[81]
*84 la_data_out[82]
*85 la_data_out[83]
*86 la_data_out[84]
*87 la_data_out[85]
*88 la_data_out[86]
*89 la_data_out[87]
*90 la_data_out[8]
*91 la_data_out[9]
*94 wb_clk_i
*95 wb_rst_i
*96 _000_
*97 _001_
*98 _002_
*99 _003_
*100 _004_
*101 _005_
*102 _006_
*103 _007_
*104 _008_
*105 _009_
*106 _010_
*107 _011_
*108 _012_
*109 _013_
*110 _014_
*111 _015_
*112 _016_
*113 _017_
*114 _018_
*115 _019_
*116 _020_
*117 _021_
*118 _022_
*119 _023_
*120 _024_
*121 _025_
*122 _026_
*123 _027_
*124 _028_
*125 _029_
*126 _030_
*127 _031_
*128 _032_
*129 _033_
*130 _034_
*131 _035_
*132 _036_
*133 _037_
*134 _038_
*135 _039_
*136 _040_
*137 _041_
*138 _042_
*139 _043_
*140 _044_
*141 _045_
*142 _046_
*143 _047_
*144 _048_
*145 _049_
*146 _050_
*147 _051_
*148 _052_
*149 _053_
*150 _054_
*151 _055_
*152 _056_
*153 _057_
*154 _058_
*155 _059_
*156 _060_
*157 _061_
*158 _062_
*159 _063_
*160 _064_
*161 _065_
*162 _066_
*163 _067_
*164 _068_
*165 _069_
*166 _070_
*167 _071_
*168 _072_
*169 _073_
*170 _074_
*171 _075_
*172 _076_
*173 _077_
*174 _078_
*175 _079_
*176 _080_
*177 _081_
*178 _082_
*179 _083_
*180 _084_
*181 _085_
*182 _086_
*183 _087_
*184 clknet_0_wb_clk_i
*185 clknet_3_0__leaf_wb_clk_i
*186 clknet_3_1__leaf_wb_clk_i
*187 clknet_3_2__leaf_wb_clk_i
*188 clknet_3_3__leaf_wb_clk_i
*189 clknet_3_4__leaf_wb_clk_i
*190 clknet_3_5__leaf_wb_clk_i
*191 clknet_3_6__leaf_wb_clk_i
*192 clknet_3_7__leaf_wb_clk_i
*193 net1
*194 net10
*195 net100
*196 net101
*197 net102
*198 net103
*199 net104
*200 net105
*201 net106
*202 net107
*203 net108
*204 net109
*205 net11
*206 net110
*207 net111
*208 net112
*209 net113
*210 net114
*211 net115
*212 net116
*213 net117
*214 net118
*215 net119
*216 net12
*217 net120
*218 net121
*219 net122
*220 net123
*221 net124
*222 net125
*223 net126
*224 net127
*225 net128
*226 net129
*227 net13
*228 net130
*229 net131
*230 net132
*231 net133
*232 net134
*233 net135
*234 net136
*235 net137
*236 net138
*237 net139
*238 net14
*239 net140
*240 net141
*241 net142
*242 net143
*243 net144
*244 net145
*245 net146
*246 net147
*247 net148
*248 net149
*249 net15
*250 net150
*251 net151
*252 net152
*253 net153
*254 net154
*255 net155
*256 net156
*257 net157
*258 net158
*259 net159
*260 net16
*261 net160
*262 net161
*263 net162
*264 net163
*265 net164
*266 net165
*267 net166
*268 net167
*269 net168
*270 net169
*271 net17
*272 net170
*273 net171
*274 net172
*275 net173
*276 net174
*277 net175
*278 net176
*279 net177
*280 net178
*281 net179
*282 net18
*283 net180
*284 net181
*285 net182
*286 net183
*287 net184
*288 net185
*289 net186
*290 net187
*291 net188
*292 net189
*293 net19
*294 net190
*295 net191
*296 net192
*297 net193
*298 net194
*299 net195
*300 net196
*301 net197
*302 net198
*303 net199
*304 net2
*305 net20
*306 net200
*307 net201
*308 net202
*309 net203
*310 net204
*311 net205
*312 net206
*313 net207
*314 net208
*315 net209
*316 net21
*317 net210
*318 net211
*319 net212
*320 net213
*321 net214
*322 net215
*323 net216
*324 net217
*325 net218
*326 net219
*327 net22
*328 net220
*329 net221
*330 net222
*331 net223
*332 net224
*333 net225
*334 net226
*335 net227
*336 net228
*337 net229
*338 net23
*339 net230
*340 net231
*341 net232
*342 net233
*343 net234
*344 net235
*345 net236
*346 net237
*347 net238
*348 net239
*349 net24
*350 net240
*351 net241
*352 net242
*353 net243
*354 net244
*355 net245
*356 net246
*357 net247
*358 net248
*359 net249
*360 net25
*361 net250
*362 net251
*363 net252
*364 net253
*365 net254
*366 net255
*367 net256
*368 net257
*369 net258
*370 net259
*371 net26
*372 net260
*373 net261
*374 net262
*375 net263
*376 net264
*377 net265
*378 net266
*379 net267
*380 net268
*381 net269
*382 net27
*383 net270
*384 net271
*385 net272
*386 net273
*387 net274
*388 net275
*389 net276
*390 net277
*391 net278
*392 net279
*393 net28
*394 net280
*395 net281
*396 net282
*397 net283
*398 net284
*399 net285
*400 net286
*401 net287
*402 net288
*403 net289
*404 net29
*405 net290
*406 net291
*407 net292
*408 net293
*409 net294
*410 net295
*411 net296
*412 net297
*413 net298
*414 net299
*415 net3
*416 net30
*417 net300
*418 net301
*419 net302
*420 net303
*421 net304
*422 net305
*423 net306
*424 net307
*425 net308
*426 net309
*427 net31
*428 net310
*429 net311
*430 net312
*431 net313
*432 net314
*433 net315
*434 net316
*435 net317
*436 net318
*437 net319
*438 net32
*439 net320
*440 net321
*441 net322
*442 net323
*443 net324
*444 net325
*445 net326
*446 net327
*447 net328
*448 net329
*449 net33
*450 net330
*451 net331
*452 net332
*453 net333
*454 net334
*455 net335
*456 net336
*457 net337
*458 net338
*459 net339
*460 net34
*461 net340
*462 net341
*463 net342
*464 net343
*465 net344
*466 net345
*467 net346
*468 net347
*469 net348
*470 net349
*471 net35
*472 net350
*473 net351
*474 net352
*475 net353
*476 net354
*477 net355
*478 net356
*479 net357
*480 net358
*481 net359
*482 net36
*483 net360
*484 net361
*485 net362
*486 net363
*487 net364
*488 net365
*489 net366
*490 net367
*491 net368
*492 net369
*493 net37
*494 net370
*495 net371
*496 net372
*497 net373
*498 net374
*499 net375
*500 net376
*501 net377
*502 net378
*503 net379
*504 net38
*505 net380
*506 net381
*507 net382
*508 net383
*509 net384
*510 net385
*511 net386
*512 net387
*513 net388
*514 net389
*515 net39
*516 net390
*517 net391
*518 net392
*519 net393
*520 net394
*521 net395
*522 net396
*523 net397
*524 net398
*525 net399
*526 net4
*527 net40
*528 net400
*529 net401
*530 net402
*531 net403
*532 net404
*533 net405
*534 net406
*535 net407
*536 net408
*537 net409
*538 net41
*539 net410
*540 net411
*541 net412
*542 net413
*543 net414
*544 net415
*545 net416
*546 net417
*547 net418
*548 net419
*549 net42
*550 net420
*551 net421
*552 net422
*553 net423
*554 net424
*555 net425
*556 net426
*557 net427
*558 net428
*559 net429
*560 net43
*561 net430
*562 net431
*563 net432
*564 net433
*565 net434
*566 net435
*567 net436
*568 net437
*569 net438
*570 net439
*571 net44
*572 net440
*573 net441
*574 net442
*575 net443
*576 net444
*577 net445
*578 net446
*579 net447
*580 net448
*581 net449
*582 net45
*583 net450
*584 net451
*585 net46
*586 net47
*587 net48
*588 net49
*589 net5
*590 net50
*591 net51
*592 net52
*593 net53
*594 net54
*595 net55
*596 net56
*597 net57
*598 net58
*599 net59
*600 net6
*601 net60
*602 net61
*603 net62
*604 net63
*605 net64
*606 net65
*607 net66
*608 net67
*609 net68
*610 net69
*611 net7
*612 net70
*613 net71
*614 net72
*615 net73
*616 net74
*617 net75
*618 net76
*619 net77
*620 net78
*621 net79
*622 net8
*623 net80
*624 net81
*625 net82
*626 net83
*627 net84
*628 net85
*629 net86
*630 net87
*631 net88
*632 net89
*633 net9
*634 net90
*635 net91
*636 net92
*637 net93
*638 net94
*639 net95
*640 net96
*641 ANTENNA__088__A_N
*642 ANTENNA__089__A_N
*643 ANTENNA__090__A_N
*644 ANTENNA__091__A_N
*645 ANTENNA__092__A_N
*646 ANTENNA__093__A_N
*647 ANTENNA__094__A_N
*648 ANTENNA__095__A_N
*649 ANTENNA__096__A_N
*650 ANTENNA__097__A_N
*651 ANTENNA__098__A_N
*652 ANTENNA__099__A_N
*653 ANTENNA__100__A_N
*654 ANTENNA__101__A_N
*655 ANTENNA__102__A_N
*656 ANTENNA__103__A_N
*657 ANTENNA__104__A_N
*658 ANTENNA__105__A_N
*659 ANTENNA__106__A_N
*660 ANTENNA__107__A_N
*661 ANTENNA__108__A_N
*662 ANTENNA__109__A_N
*663 ANTENNA__110__A_N
*664 ANTENNA__111__A_N
*665 ANTENNA__112__A_N
*666 ANTENNA__113__A_N
*667 ANTENNA__114__A_N
*668 ANTENNA__115__A_N
*669 ANTENNA__116__A_N
*670 ANTENNA__117__A_N
*671 ANTENNA__118__A_N
*672 ANTENNA__119__A_N
*673 ANTENNA__120__A_N
*674 ANTENNA__121__A_N
*675 ANTENNA__122__A_N
*676 ANTENNA__123__A_N
*677 ANTENNA__124__A_N
*678 ANTENNA__125__A_N
*679 ANTENNA__126__A_N
*680 ANTENNA__127__A_N
*681 ANTENNA__128__A_N
*682 ANTENNA__129__A_N
*683 ANTENNA__130__A_N
*684 ANTENNA__131__A_N
*685 ANTENNA__132__A_N
*686 ANTENNA__133__A_N
*687 ANTENNA__134__A_N
*688 ANTENNA__135__A_N
*689 ANTENNA__136__A_N
*690 ANTENNA__137__A_N
*691 ANTENNA__138__A_N
*692 ANTENNA__139__A_N
*693 ANTENNA__140__A_N
*694 ANTENNA__141__A_N
*695 ANTENNA__151__A_N
*696 ANTENNA__152__A_N
*697 ANTENNA__153__A_N
*698 ANTENNA__154__A_N
*699 ANTENNA__155__A_N
*700 ANTENNA__156__A_N
*701 ANTENNA__157__A_N
*702 ANTENNA__158__A_N
*703 ANTENNA__161__A_N
*704 ANTENNA__162__A_N
*705 ANTENNA__163__A_N
*706 ANTENNA__164__A_N
*707 ANTENNA__165__A_N
*708 ANTENNA__166__A_N
*709 ANTENNA__167__A_N
*710 ANTENNA__173__A_N
*711 ANTENNA__174__A_N
*712 ANTENNA__175__A_N
*713 ANTENNA__179__CLK
*714 ANTENNA__180__CLK
*715 ANTENNA__181__CLK
*716 ANTENNA__182__CLK
*717 ANTENNA__183__CLK
*718 ANTENNA__184__CLK
*719 ANTENNA__189__CLK
*720 ANTENNA__190__CLK
*721 ANTENNA__191__CLK
*722 ANTENNA__192__CLK
*723 ANTENNA__193__CLK
*724 ANTENNA__194__CLK
*725 ANTENNA__205__CLK
*726 ANTENNA__213__CLK
*727 ANTENNA__219__CLK
*728 ANTENNA__250__CLK
*729 ANTENNA__251__CLK
*730 ANTENNA__252__CLK
*731 ANTENNA_clkbuf_3_0__f_wb_clk_i_A
*732 ANTENNA_clkbuf_3_1__f_wb_clk_i_A
*733 ANTENNA_clkbuf_3_2__f_wb_clk_i_A
*734 ANTENNA_clkbuf_3_3__f_wb_clk_i_A
*735 ANTENNA_clkbuf_3_4__f_wb_clk_i_A
*736 ANTENNA_clkbuf_3_5__f_wb_clk_i_A
*737 ANTENNA_clkbuf_3_6__f_wb_clk_i_A
*738 ANTENNA_clkbuf_3_7__f_wb_clk_i_A
*739 ANTENNA_fanout90_A
*740 ANTENNA_fanout91_A
*741 ANTENNA_fanout92_A
*742 ANTENNA_fanout93_A
*743 ANTENNA_fanout94_A
*744 ANTENNA_fanout95_A
*745 FILLER_0_0_113
*746 FILLER_0_0_141
*747 FILLER_0_0_177
*748 FILLER_0_0_206
*749 FILLER_0_0_214
*750 FILLER_0_0_249
*751 FILLER_0_0_25
*752 FILLER_0_0_262
*753 FILLER_0_0_266
*754 FILLER_0_0_277
*755 FILLER_0_0_290
*756 FILLER_0_0_294
*757 FILLER_0_0_305
*758 FILLER_0_0_318
*759 FILLER_0_0_32
*760 FILLER_0_0_322
*761 FILLER_0_0_333
*762 FILLER_0_0_44
*763 FILLER_0_0_57
*764 FILLER_0_0_69
*765 FILLER_0_0_85
*766 FILLER_0_10_109
*767 FILLER_0_10_121
*768 FILLER_0_10_133
*769 FILLER_0_10_139
*770 FILLER_0_10_141
*771 FILLER_0_10_153
*772 FILLER_0_10_165
*773 FILLER_0_10_177
*774 FILLER_0_10_189
*775 FILLER_0_10_195
*776 FILLER_0_10_197
*777 FILLER_0_10_209
*778 FILLER_0_10_221
*779 FILLER_0_10_233
*780 FILLER_0_10_245
*781 FILLER_0_10_251
*782 FILLER_0_10_253
*783 FILLER_0_10_265
*784 FILLER_0_10_27
*785 FILLER_0_10_277
*786 FILLER_0_10_289
*787 FILLER_0_10_297
*788 FILLER_0_10_309
*789 FILLER_0_10_348
*790 FILLER_0_10_352
*791 FILLER_0_10_43
*792 FILLER_0_10_47
*793 FILLER_0_10_59
*794 FILLER_0_10_71
*795 FILLER_0_10_83
*796 FILLER_0_10_85
*797 FILLER_0_10_97
*798 FILLER_0_11_105
*799 FILLER_0_11_111
*800 FILLER_0_11_113
*801 FILLER_0_11_125
*802 FILLER_0_11_137
*803 FILLER_0_11_149
*804 FILLER_0_11_161
*805 FILLER_0_11_167
*806 FILLER_0_11_169
*807 FILLER_0_11_181
*808 FILLER_0_11_193
*809 FILLER_0_11_205
*810 FILLER_0_11_217
*811 FILLER_0_11_223
*812 FILLER_0_11_225
*813 FILLER_0_11_237
*814 FILLER_0_11_249
*815 FILLER_0_11_261
*816 FILLER_0_11_273
*817 FILLER_0_11_279
*818 FILLER_0_11_281
*819 FILLER_0_11_293
*820 FILLER_0_11_3
*821 FILLER_0_11_305
*822 FILLER_0_11_310
*823 FILLER_0_11_346
*824 FILLER_0_11_352
*825 FILLER_0_11_37
*826 FILLER_0_11_41
*827 FILLER_0_11_53
*828 FILLER_0_11_57
*829 FILLER_0_11_69
*830 FILLER_0_11_81
*831 FILLER_0_11_93
*832 FILLER_0_12_109
*833 FILLER_0_12_121
*834 FILLER_0_12_133
*835 FILLER_0_12_139
*836 FILLER_0_12_141
*837 FILLER_0_12_153
*838 FILLER_0_12_165
*839 FILLER_0_12_177
*840 FILLER_0_12_189
*841 FILLER_0_12_195
*842 FILLER_0_12_197
*843 FILLER_0_12_201
*844 FILLER_0_12_210
*845 FILLER_0_12_222
*846 FILLER_0_12_234
*847 FILLER_0_12_246
*848 FILLER_0_12_253
*849 FILLER_0_12_265
*850 FILLER_0_12_27
*851 FILLER_0_12_277
*852 FILLER_0_12_289
*853 FILLER_0_12_3
*854 FILLER_0_12_301
*855 FILLER_0_12_307
*856 FILLER_0_12_309
*857 FILLER_0_12_315
*858 FILLER_0_12_348
*859 FILLER_0_12_352
*860 FILLER_0_12_37
*861 FILLER_0_12_45
*862 FILLER_0_12_56
*863 FILLER_0_12_68
*864 FILLER_0_12_80
*865 FILLER_0_12_85
*866 FILLER_0_12_9
*867 FILLER_0_12_97
*868 FILLER_0_13_105
*869 FILLER_0_13_111
*870 FILLER_0_13_113
*871 FILLER_0_13_125
*872 FILLER_0_13_137
*873 FILLER_0_13_145
*874 FILLER_0_13_155
*875 FILLER_0_13_167
*876 FILLER_0_13_169
*877 FILLER_0_13_181
*878 FILLER_0_13_193
*879 FILLER_0_13_205
*880 FILLER_0_13_217
*881 FILLER_0_13_223
*882 FILLER_0_13_225
*883 FILLER_0_13_237
*884 FILLER_0_13_249
*885 FILLER_0_13_260
*886 FILLER_0_13_272
*887 FILLER_0_13_289
*888 FILLER_0_13_301
*889 FILLER_0_13_309
*890 FILLER_0_13_33
*891 FILLER_0_13_346
*892 FILLER_0_13_352
*893 FILLER_0_13_37
*894 FILLER_0_13_49
*895 FILLER_0_13_55
*896 FILLER_0_13_57
*897 FILLER_0_13_69
*898 FILLER_0_13_81
*899 FILLER_0_13_93
*900 FILLER_0_14_109
*901 FILLER_0_14_121
*902 FILLER_0_14_133
*903 FILLER_0_14_139
*904 FILLER_0_14_141
*905 FILLER_0_14_153
*906 FILLER_0_14_164
*907 FILLER_0_14_176
*908 FILLER_0_14_188
*909 FILLER_0_14_197
*910 FILLER_0_14_209
*911 FILLER_0_14_221
*912 FILLER_0_14_23
*913 FILLER_0_14_233
*914 FILLER_0_14_245
*915 FILLER_0_14_251
*916 FILLER_0_14_253
*917 FILLER_0_14_265
*918 FILLER_0_14_27
*919 FILLER_0_14_291
*920 FILLER_0_14_3
*921 FILLER_0_14_303
*922 FILLER_0_14_307
*923 FILLER_0_14_309
*924 FILLER_0_14_315
*925 FILLER_0_14_348
*926 FILLER_0_14_352
*927 FILLER_0_14_37
*928 FILLER_0_14_65
*929 FILLER_0_14_69
*930 FILLER_0_14_81
*931 FILLER_0_14_85
*932 FILLER_0_14_97
*933 FILLER_0_15_109
*934 FILLER_0_15_113
*935 FILLER_0_15_125
*936 FILLER_0_15_137
*937 FILLER_0_15_149
*938 FILLER_0_15_161
*939 FILLER_0_15_167
*940 FILLER_0_15_169
*941 FILLER_0_15_181
*942 FILLER_0_15_19
*943 FILLER_0_15_193
*944 FILLER_0_15_205
*945 FILLER_0_15_217
*946 FILLER_0_15_223
*947 FILLER_0_15_225
*948 FILLER_0_15_237
*949 FILLER_0_15_249
*950 FILLER_0_15_261
*951 FILLER_0_15_273
*952 FILLER_0_15_279
*953 FILLER_0_15_281
*954 FILLER_0_15_293
*955 FILLER_0_15_3
*956 FILLER_0_15_319
*957 FILLER_0_15_34
*958 FILLER_0_15_38
*959 FILLER_0_15_50
*960 FILLER_0_15_57
*961 FILLER_0_15_69
*962 FILLER_0_15_9
*963 FILLER_0_15_93
*964 FILLER_0_15_97
*965 FILLER_0_16_109
*966 FILLER_0_16_121
*967 FILLER_0_16_133
*968 FILLER_0_16_139
*969 FILLER_0_16_141
*970 FILLER_0_16_153
*971 FILLER_0_16_165
*972 FILLER_0_16_177
*973 FILLER_0_16_189
*974 FILLER_0_16_195
*975 FILLER_0_16_197
*976 FILLER_0_16_209
*977 FILLER_0_16_221
*978 FILLER_0_16_23
*979 FILLER_0_16_233
*980 FILLER_0_16_245
*981 FILLER_0_16_251
*982 FILLER_0_16_253
*983 FILLER_0_16_265
*984 FILLER_0_16_27
*985 FILLER_0_16_277
*986 FILLER_0_16_289
*987 FILLER_0_16_3
*988 FILLER_0_16_301
*989 FILLER_0_16_307
*990 FILLER_0_16_309
*991 FILLER_0_16_317
*992 FILLER_0_16_322
*993 FILLER_0_16_328
*994 FILLER_0_16_346
*995 FILLER_0_16_352
*996 FILLER_0_16_37
*997 FILLER_0_16_49
*998 FILLER_0_16_61
*999 FILLER_0_16_73
*1000 FILLER_0_16_81
*1001 FILLER_0_16_85
*1002 FILLER_0_16_97
*1003 FILLER_0_17_105
*1004 FILLER_0_17_111
*1005 FILLER_0_17_113
*1006 FILLER_0_17_141
*1007 FILLER_0_17_153
*1008 FILLER_0_17_165
*1009 FILLER_0_17_169
*1010 FILLER_0_17_181
*1011 FILLER_0_17_193
*1012 FILLER_0_17_197
*1013 FILLER_0_17_206
*1014 FILLER_0_17_218
*1015 FILLER_0_17_225
*1016 FILLER_0_17_237
*1017 FILLER_0_17_249
*1018 FILLER_0_17_261
*1019 FILLER_0_17_273
*1020 FILLER_0_17_279
*1021 FILLER_0_17_281
*1022 FILLER_0_17_293
*1023 FILLER_0_17_305
*1024 FILLER_0_17_317
*1025 FILLER_0_17_43
*1026 FILLER_0_17_55
*1027 FILLER_0_17_57
*1028 FILLER_0_17_69
*1029 FILLER_0_17_81
*1030 FILLER_0_17_93
*1031 FILLER_0_18_105
*1032 FILLER_0_18_117
*1033 FILLER_0_18_129
*1034 FILLER_0_18_137
*1035 FILLER_0_18_141
*1036 FILLER_0_18_153
*1037 FILLER_0_18_165
*1038 FILLER_0_18_177
*1039 FILLER_0_18_189
*1040 FILLER_0_18_195
*1041 FILLER_0_18_197
*1042 FILLER_0_18_209
*1043 FILLER_0_18_221
*1044 FILLER_0_18_233
*1045 FILLER_0_18_245
*1046 FILLER_0_18_251
*1047 FILLER_0_18_261
*1048 FILLER_0_18_27
*1049 FILLER_0_18_273
*1050 FILLER_0_18_285
*1051 FILLER_0_18_297
*1052 FILLER_0_18_3
*1053 FILLER_0_18_305
*1054 FILLER_0_18_309
*1055 FILLER_0_18_43
*1056 FILLER_0_18_54
*1057 FILLER_0_18_66
*1058 FILLER_0_18_78
*1059 FILLER_0_18_9
*1060 FILLER_0_18_93
*1061 FILLER_0_19_105
*1062 FILLER_0_19_111
*1063 FILLER_0_19_113
*1064 FILLER_0_19_125
*1065 FILLER_0_19_137
*1066 FILLER_0_19_149
*1067 FILLER_0_19_161
*1068 FILLER_0_19_167
*1069 FILLER_0_19_169
*1070 FILLER_0_19_181
*1071 FILLER_0_19_193
*1072 FILLER_0_19_205
*1073 FILLER_0_19_217
*1074 FILLER_0_19_223
*1075 FILLER_0_19_225
*1076 FILLER_0_19_237
*1077 FILLER_0_19_246
*1078 FILLER_0_19_258
*1079 FILLER_0_19_270
*1080 FILLER_0_19_278
*1081 FILLER_0_19_281
*1082 FILLER_0_19_293
*1083 FILLER_0_19_3
*1084 FILLER_0_19_305
*1085 FILLER_0_19_317
*1086 FILLER_0_19_325
*1087 FILLER_0_19_346
*1088 FILLER_0_19_352
*1089 FILLER_0_19_39
*1090 FILLER_0_19_45
*1091 FILLER_0_19_53
*1092 FILLER_0_19_57
*1093 FILLER_0_19_69
*1094 FILLER_0_19_81
*1095 FILLER_0_19_93
*1096 FILLER_0_1_113
*1097 FILLER_0_1_121
*1098 FILLER_0_1_147
*1099 FILLER_0_1_151
*1100 FILLER_0_1_177
*1101 FILLER_0_1_187
*1102 FILLER_0_1_19
*1103 FILLER_0_1_199
*1104 FILLER_0_1_216
*1105 FILLER_0_1_225
*1106 FILLER_0_1_229
*1107 FILLER_0_1_273
*1108 FILLER_0_1_3
*1109 FILLER_0_1_31
*1110 FILLER_0_1_335
*1111 FILLER_0_1_39
*1112 FILLER_0_1_57
*1113 FILLER_0_1_63
*1114 FILLER_0_1_9
*1115 FILLER_0_20_101
*1116 FILLER_0_20_108
*1117 FILLER_0_20_112
*1118 FILLER_0_20_124
*1119 FILLER_0_20_136
*1120 FILLER_0_20_141
*1121 FILLER_0_20_153
*1122 FILLER_0_20_165
*1123 FILLER_0_20_177
*1124 FILLER_0_20_189
*1125 FILLER_0_20_195
*1126 FILLER_0_20_197
*1127 FILLER_0_20_206
*1128 FILLER_0_20_218
*1129 FILLER_0_20_230
*1130 FILLER_0_20_242
*1131 FILLER_0_20_250
*1132 FILLER_0_20_253
*1133 FILLER_0_20_265
*1134 FILLER_0_20_27
*1135 FILLER_0_20_277
*1136 FILLER_0_20_289
*1137 FILLER_0_20_3
*1138 FILLER_0_20_301
*1139 FILLER_0_20_307
*1140 FILLER_0_20_309
*1141 FILLER_0_20_315
*1142 FILLER_0_20_348
*1143 FILLER_0_20_352
*1144 FILLER_0_20_37
*1145 FILLER_0_20_49
*1146 FILLER_0_20_61
*1147 FILLER_0_20_73
*1148 FILLER_0_20_81
*1149 FILLER_0_20_85
*1150 FILLER_0_20_9
*1151 FILLER_0_20_97
*1152 FILLER_0_21_105
*1153 FILLER_0_21_111
*1154 FILLER_0_21_113
*1155 FILLER_0_21_125
*1156 FILLER_0_21_137
*1157 FILLER_0_21_149
*1158 FILLER_0_21_161
*1159 FILLER_0_21_167
*1160 FILLER_0_21_169
*1161 FILLER_0_21_181
*1162 FILLER_0_21_209
*1163 FILLER_0_21_213
*1164 FILLER_0_21_221
*1165 FILLER_0_21_225
*1166 FILLER_0_21_237
*1167 FILLER_0_21_249
*1168 FILLER_0_21_261
*1169 FILLER_0_21_273
*1170 FILLER_0_21_279
*1171 FILLER_0_21_281
*1172 FILLER_0_21_293
*1173 FILLER_0_21_3
*1174 FILLER_0_21_305
*1175 FILLER_0_21_311
*1176 FILLER_0_21_346
*1177 FILLER_0_21_352
*1178 FILLER_0_21_41
*1179 FILLER_0_21_45
*1180 FILLER_0_21_53
*1181 FILLER_0_21_57
*1182 FILLER_0_21_69
*1183 FILLER_0_21_81
*1184 FILLER_0_21_9
*1185 FILLER_0_21_93
*1186 FILLER_0_22_115
*1187 FILLER_0_22_119
*1188 FILLER_0_22_131
*1189 FILLER_0_22_139
*1190 FILLER_0_22_141
*1191 FILLER_0_22_153
*1192 FILLER_0_22_165
*1193 FILLER_0_22_177
*1194 FILLER_0_22_185
*1195 FILLER_0_22_213
*1196 FILLER_0_22_217
*1197 FILLER_0_22_229
*1198 FILLER_0_22_241
*1199 FILLER_0_22_249
*1200 FILLER_0_22_253
*1201 FILLER_0_22_265
*1202 FILLER_0_22_27
*1203 FILLER_0_22_277
*1204 FILLER_0_22_289
*1205 FILLER_0_22_301
*1206 FILLER_0_22_307
*1207 FILLER_0_22_309
*1208 FILLER_0_22_315
*1209 FILLER_0_22_348
*1210 FILLER_0_22_352
*1211 FILLER_0_22_41
*1212 FILLER_0_22_45
*1213 FILLER_0_22_49
*1214 FILLER_0_22_61
*1215 FILLER_0_22_73
*1216 FILLER_0_22_81
*1217 FILLER_0_22_85
*1218 FILLER_0_22_97
*1219 FILLER_0_23_105
*1220 FILLER_0_23_111
*1221 FILLER_0_23_113
*1222 FILLER_0_23_125
*1223 FILLER_0_23_153
*1224 FILLER_0_23_165
*1225 FILLER_0_23_169
*1226 FILLER_0_23_181
*1227 FILLER_0_23_191
*1228 FILLER_0_23_195
*1229 FILLER_0_23_204
*1230 FILLER_0_23_208
*1231 FILLER_0_23_220
*1232 FILLER_0_23_225
*1233 FILLER_0_23_237
*1234 FILLER_0_23_249
*1235 FILLER_0_23_25
*1236 FILLER_0_23_261
*1237 FILLER_0_23_273
*1238 FILLER_0_23_279
*1239 FILLER_0_23_281
*1240 FILLER_0_23_293
*1241 FILLER_0_23_3
*1242 FILLER_0_23_305
*1243 FILLER_0_23_311
*1244 FILLER_0_23_346
*1245 FILLER_0_23_352
*1246 FILLER_0_23_43
*1247 FILLER_0_23_55
*1248 FILLER_0_23_57
*1249 FILLER_0_23_69
*1250 FILLER_0_23_81
*1251 FILLER_0_23_93
*1252 FILLER_0_24_109
*1253 FILLER_0_24_121
*1254 FILLER_0_24_133
*1255 FILLER_0_24_139
*1256 FILLER_0_24_141
*1257 FILLER_0_24_153
*1258 FILLER_0_24_165
*1259 FILLER_0_24_177
*1260 FILLER_0_24_189
*1261 FILLER_0_24_19
*1262 FILLER_0_24_195
*1263 FILLER_0_24_197
*1264 FILLER_0_24_209
*1265 FILLER_0_24_221
*1266 FILLER_0_24_233
*1267 FILLER_0_24_245
*1268 FILLER_0_24_251
*1269 FILLER_0_24_253
*1270 FILLER_0_24_261
*1271 FILLER_0_24_265
*1272 FILLER_0_24_277
*1273 FILLER_0_24_289
*1274 FILLER_0_24_301
*1275 FILLER_0_24_307
*1276 FILLER_0_24_309
*1277 FILLER_0_24_315
*1278 FILLER_0_24_348
*1279 FILLER_0_24_352
*1280 FILLER_0_24_45
*1281 FILLER_0_24_57
*1282 FILLER_0_24_71
*1283 FILLER_0_24_83
*1284 FILLER_0_24_85
*1285 FILLER_0_24_97
*1286 FILLER_0_25_105
*1287 FILLER_0_25_111
*1288 FILLER_0_25_113
*1289 FILLER_0_25_125
*1290 FILLER_0_25_137
*1291 FILLER_0_25_149
*1292 FILLER_0_25_161
*1293 FILLER_0_25_167
*1294 FILLER_0_25_169
*1295 FILLER_0_25_181
*1296 FILLER_0_25_193
*1297 FILLER_0_25_205
*1298 FILLER_0_25_217
*1299 FILLER_0_25_223
*1300 FILLER_0_25_225
*1301 FILLER_0_25_237
*1302 FILLER_0_25_249
*1303 FILLER_0_25_261
*1304 FILLER_0_25_27
*1305 FILLER_0_25_273
*1306 FILLER_0_25_279
*1307 FILLER_0_25_281
*1308 FILLER_0_25_293
*1309 FILLER_0_25_305
*1310 FILLER_0_25_317
*1311 FILLER_0_25_33
*1312 FILLER_0_25_43
*1313 FILLER_0_25_55
*1314 FILLER_0_25_57
*1315 FILLER_0_25_69
*1316 FILLER_0_25_81
*1317 FILLER_0_25_93
*1318 FILLER_0_26_109
*1319 FILLER_0_26_121
*1320 FILLER_0_26_133
*1321 FILLER_0_26_139
*1322 FILLER_0_26_141
*1323 FILLER_0_26_153
*1324 FILLER_0_26_165
*1325 FILLER_0_26_177
*1326 FILLER_0_26_189
*1327 FILLER_0_26_195
*1328 FILLER_0_26_197
*1329 FILLER_0_26_208
*1330 FILLER_0_26_220
*1331 FILLER_0_26_224
*1332 FILLER_0_26_23
*1333 FILLER_0_26_236
*1334 FILLER_0_26_248
*1335 FILLER_0_26_253
*1336 FILLER_0_26_265
*1337 FILLER_0_26_27
*1338 FILLER_0_26_277
*1339 FILLER_0_26_289
*1340 FILLER_0_26_3
*1341 FILLER_0_26_301
*1342 FILLER_0_26_307
*1343 FILLER_0_26_309
*1344 FILLER_0_26_321
*1345 FILLER_0_26_346
*1346 FILLER_0_26_352
*1347 FILLER_0_26_43
*1348 FILLER_0_26_47
*1349 FILLER_0_26_59
*1350 FILLER_0_26_71
*1351 FILLER_0_26_83
*1352 FILLER_0_26_85
*1353 FILLER_0_26_97
*1354 FILLER_0_27_105
*1355 FILLER_0_27_111
*1356 FILLER_0_27_113
*1357 FILLER_0_27_125
*1358 FILLER_0_27_137
*1359 FILLER_0_27_149
*1360 FILLER_0_27_161
*1361 FILLER_0_27_167
*1362 FILLER_0_27_169
*1363 FILLER_0_27_181
*1364 FILLER_0_27_193
*1365 FILLER_0_27_205
*1366 FILLER_0_27_217
*1367 FILLER_0_27_223
*1368 FILLER_0_27_225
*1369 FILLER_0_27_237
*1370 FILLER_0_27_249
*1371 FILLER_0_27_261
*1372 FILLER_0_27_273
*1373 FILLER_0_27_279
*1374 FILLER_0_27_281
*1375 FILLER_0_27_293
*1376 FILLER_0_27_3
*1377 FILLER_0_27_305
*1378 FILLER_0_27_317
*1379 FILLER_0_27_39
*1380 FILLER_0_27_51
*1381 FILLER_0_27_55
*1382 FILLER_0_27_57
*1383 FILLER_0_27_69
*1384 FILLER_0_27_81
*1385 FILLER_0_27_93
*1386 FILLER_0_28_109
*1387 FILLER_0_28_121
*1388 FILLER_0_28_133
*1389 FILLER_0_28_139
*1390 FILLER_0_28_141
*1391 FILLER_0_28_153
*1392 FILLER_0_28_165
*1393 FILLER_0_28_173
*1394 FILLER_0_28_197
*1395 FILLER_0_28_209
*1396 FILLER_0_28_23
*1397 FILLER_0_28_237
*1398 FILLER_0_28_241
*1399 FILLER_0_28_249
*1400 FILLER_0_28_261
*1401 FILLER_0_28_27
*1402 FILLER_0_28_273
*1403 FILLER_0_28_285
*1404 FILLER_0_28_297
*1405 FILLER_0_28_3
*1406 FILLER_0_28_305
*1407 FILLER_0_28_309
*1408 FILLER_0_28_43
*1409 FILLER_0_28_55
*1410 FILLER_0_28_67
*1411 FILLER_0_28_79
*1412 FILLER_0_28_83
*1413 FILLER_0_28_85
*1414 FILLER_0_28_97
*1415 FILLER_0_29_105
*1416 FILLER_0_29_111
*1417 FILLER_0_29_113
*1418 FILLER_0_29_125
*1419 FILLER_0_29_137
*1420 FILLER_0_29_149
*1421 FILLER_0_29_161
*1422 FILLER_0_29_167
*1423 FILLER_0_29_169
*1424 FILLER_0_29_181
*1425 FILLER_0_29_193
*1426 FILLER_0_29_205
*1427 FILLER_0_29_217
*1428 FILLER_0_29_223
*1429 FILLER_0_29_225
*1430 FILLER_0_29_237
*1431 FILLER_0_29_249
*1432 FILLER_0_29_261
*1433 FILLER_0_29_273
*1434 FILLER_0_29_279
*1435 FILLER_0_29_281
*1436 FILLER_0_29_293
*1437 FILLER_0_29_305
*1438 FILLER_0_29_317
*1439 FILLER_0_29_323
*1440 FILLER_0_29_327
*1441 FILLER_0_29_346
*1442 FILLER_0_29_352
*1443 FILLER_0_29_41
*1444 FILLER_0_29_53
*1445 FILLER_0_29_57
*1446 FILLER_0_29_69
*1447 FILLER_0_29_81
*1448 FILLER_0_29_9
*1449 FILLER_0_29_93
*1450 FILLER_0_2_138
*1451 FILLER_0_2_189
*1452 FILLER_0_2_19
*1453 FILLER_0_2_195
*1454 FILLER_0_2_205
*1455 FILLER_0_2_217
*1456 FILLER_0_2_225
*1457 FILLER_0_2_251
*1458 FILLER_0_2_27
*1459 FILLER_0_2_29
*1460 FILLER_0_2_300
*1461 FILLER_0_2_304
*1462 FILLER_0_2_318
*1463 FILLER_0_2_322
*1464 FILLER_0_2_326
*1465 FILLER_0_2_329
*1466 FILLER_0_2_341
*1467 FILLER_0_2_41
*1468 FILLER_0_2_52
*1469 FILLER_0_2_58
*1470 FILLER_0_2_68
*1471 FILLER_0_2_74
*1472 FILLER_0_2_85
*1473 FILLER_0_2_89
*1474 FILLER_0_30_109
*1475 FILLER_0_30_121
*1476 FILLER_0_30_133
*1477 FILLER_0_30_139
*1478 FILLER_0_30_141
*1479 FILLER_0_30_153
*1480 FILLER_0_30_165
*1481 FILLER_0_30_177
*1482 FILLER_0_30_183
*1483 FILLER_0_30_190
*1484 FILLER_0_30_194
*1485 FILLER_0_30_197
*1486 FILLER_0_30_209
*1487 FILLER_0_30_221
*1488 FILLER_0_30_233
*1489 FILLER_0_30_245
*1490 FILLER_0_30_251
*1491 FILLER_0_30_253
*1492 FILLER_0_30_265
*1493 FILLER_0_30_27
*1494 FILLER_0_30_277
*1495 FILLER_0_30_289
*1496 FILLER_0_30_3
*1497 FILLER_0_30_301
*1498 FILLER_0_30_307
*1499 FILLER_0_30_309
*1500 FILLER_0_30_321
*1501 FILLER_0_30_348
*1502 FILLER_0_30_352
*1503 FILLER_0_30_51
*1504 FILLER_0_30_63
*1505 FILLER_0_30_7
*1506 FILLER_0_30_75
*1507 FILLER_0_30_83
*1508 FILLER_0_30_85
*1509 FILLER_0_30_97
*1510 FILLER_0_31_105
*1511 FILLER_0_31_111
*1512 FILLER_0_31_113
*1513 FILLER_0_31_125
*1514 FILLER_0_31_137
*1515 FILLER_0_31_149
*1516 FILLER_0_31_161
*1517 FILLER_0_31_167
*1518 FILLER_0_31_169
*1519 FILLER_0_31_181
*1520 FILLER_0_31_193
*1521 FILLER_0_31_205
*1522 FILLER_0_31_217
*1523 FILLER_0_31_223
*1524 FILLER_0_31_225
*1525 FILLER_0_31_237
*1526 FILLER_0_31_249
*1527 FILLER_0_31_261
*1528 FILLER_0_31_281
*1529 FILLER_0_31_285
*1530 FILLER_0_31_297
*1531 FILLER_0_31_309
*1532 FILLER_0_31_321
*1533 FILLER_0_31_327
*1534 FILLER_0_31_41
*1535 FILLER_0_31_53
*1536 FILLER_0_31_57
*1537 FILLER_0_31_69
*1538 FILLER_0_31_81
*1539 FILLER_0_31_93
*1540 FILLER_0_32_109
*1541 FILLER_0_32_121
*1542 FILLER_0_32_133
*1543 FILLER_0_32_139
*1544 FILLER_0_32_141
*1545 FILLER_0_32_153
*1546 FILLER_0_32_165
*1547 FILLER_0_32_173
*1548 FILLER_0_32_191
*1549 FILLER_0_32_195
*1550 FILLER_0_32_197
*1551 FILLER_0_32_209
*1552 FILLER_0_32_221
*1553 FILLER_0_32_23
*1554 FILLER_0_32_233
*1555 FILLER_0_32_245
*1556 FILLER_0_32_251
*1557 FILLER_0_32_253
*1558 FILLER_0_32_265
*1559 FILLER_0_32_27
*1560 FILLER_0_32_277
*1561 FILLER_0_32_289
*1562 FILLER_0_32_3
*1563 FILLER_0_32_301
*1564 FILLER_0_32_307
*1565 FILLER_0_32_309
*1566 FILLER_0_32_321
*1567 FILLER_0_32_346
*1568 FILLER_0_32_352
*1569 FILLER_0_32_37
*1570 FILLER_0_32_49
*1571 FILLER_0_32_61
*1572 FILLER_0_32_73
*1573 FILLER_0_32_81
*1574 FILLER_0_32_85
*1575 FILLER_0_32_97
*1576 FILLER_0_33_105
*1577 FILLER_0_33_111
*1578 FILLER_0_33_113
*1579 FILLER_0_33_125
*1580 FILLER_0_33_137
*1581 FILLER_0_33_149
*1582 FILLER_0_33_161
*1583 FILLER_0_33_167
*1584 FILLER_0_33_169
*1585 FILLER_0_33_181
*1586 FILLER_0_33_19
*1587 FILLER_0_33_193
*1588 FILLER_0_33_205
*1589 FILLER_0_33_217
*1590 FILLER_0_33_223
*1591 FILLER_0_33_225
*1592 FILLER_0_33_237
*1593 FILLER_0_33_249
*1594 FILLER_0_33_261
*1595 FILLER_0_33_273
*1596 FILLER_0_33_279
*1597 FILLER_0_33_28
*1598 FILLER_0_33_281
*1599 FILLER_0_33_293
*1600 FILLER_0_33_3
*1601 FILLER_0_33_305
*1602 FILLER_0_33_317
*1603 FILLER_0_33_325
*1604 FILLER_0_33_346
*1605 FILLER_0_33_352
*1606 FILLER_0_33_40
*1607 FILLER_0_33_52
*1608 FILLER_0_33_57
*1609 FILLER_0_33_69
*1610 FILLER_0_33_81
*1611 FILLER_0_33_9
*1612 FILLER_0_33_93
*1613 FILLER_0_34_109
*1614 FILLER_0_34_121
*1615 FILLER_0_34_133
*1616 FILLER_0_34_139
*1617 FILLER_0_34_141
*1618 FILLER_0_34_153
*1619 FILLER_0_34_165
*1620 FILLER_0_34_177
*1621 FILLER_0_34_189
*1622 FILLER_0_34_195
*1623 FILLER_0_34_197
*1624 FILLER_0_34_209
*1625 FILLER_0_34_221
*1626 FILLER_0_34_23
*1627 FILLER_0_34_233
*1628 FILLER_0_34_245