*SPEF "ieee 1481-1999"
*DESIGN "user_project_wrapper"
*DATE "11:11:11 Fri 11 11, 1111"
*VENDOR "OpenRCX"
*PROGRAM "Parallel Extraction"
*VERSION "1.0"
*DESIGN_FLOW "NAME_SCOPE LOCAL" "PIN_CAP NONE"
*DIVIDER /
*DELIMITER :
*BUS_DELIMITER []
*T_UNIT 1 NS
*C_UNIT 1 PF
*R_UNIT 1 OHM
*L_UNIT 1 HENRY

*NAME_MAP
*1 analog_io[0]
*2 analog_io[10]
*3 analog_io[11]
*4 analog_io[12]
*5 analog_io[13]
*6 analog_io[14]
*7 analog_io[15]
*8 analog_io[16]
*9 analog_io[17]
*10 analog_io[18]
*11 analog_io[19]
*12 analog_io[1]
*13 analog_io[20]
*14 analog_io[21]
*15 analog_io[22]
*16 analog_io[23]
*17 analog_io[24]
*18 analog_io[25]
*19 analog_io[26]
*20 analog_io[27]
*21 analog_io[28]
*22 analog_io[2]
*23 analog_io[3]
*24 analog_io[4]
*25 analog_io[5]
*26 analog_io[6]
*27 analog_io[7]
*28 analog_io[8]
*29 analog_io[9]
*30 io_in[0]
*31 io_in[10]
*32 io_in[11]
*33 io_in[12]
*34 io_in[13]
*35 io_in[14]
*36 io_in[15]
*37 io_in[16]
*38 io_in[17]
*39 io_in[18]
*40 io_in[19]
*41 io_in[1]
*42 io_in[20]
*43 io_in[21]
*44 io_in[22]
*45 io_in[23]
*46 io_in[24]
*47 io_in[25]
*48 io_in[26]
*49 io_in[27]
*50 io_in[28]
*51 io_in[29]
*52 io_in[2]
*53 io_in[30]
*54 io_in[31]
*55 io_in[32]
*56 io_in[33]
*57 io_in[34]
*58 io_in[35]
*59 io_in[36]
*60 io_in[37]
*61 io_in[3]
*62 io_in[4]
*63 io_in[5]
*64 io_in[6]
*65 io_in[7]
*66 io_in[8]
*67 io_in[9]
*68 io_oeb[0]
*69 io_oeb[10]
*70 io_oeb[11]
*71 io_oeb[12]
*72 io_oeb[13]
*73 io_oeb[14]
*74 io_oeb[15]
*75 io_oeb[16]
*76 io_oeb[17]
*77 io_oeb[18]
*78 io_oeb[19]
*79 io_oeb[1]
*80 io_oeb[20]
*81 io_oeb[21]
*82 io_oeb[22]
*83 io_oeb[23]
*84 io_oeb[24]
*85 io_oeb[25]
*86 io_oeb[26]
*87 io_oeb[27]
*88 io_oeb[28]
*89 io_oeb[29]
*90 io_oeb[2]
*91 io_oeb[30]
*92 io_oeb[31]
*93 io_oeb[32]
*94 io_oeb[33]
*95 io_oeb[34]
*96 io_oeb[35]
*97 io_oeb[36]
*98 io_oeb[37]
*99 io_oeb[3]
*100 io_oeb[4]
*101 io_oeb[5]
*102 io_oeb[6]
*103 io_oeb[7]
*104 io_oeb[8]
*105 io_oeb[9]
*106 io_out[0]
*107 io_out[10]
*108 io_out[11]
*109 io_out[12]
*110 io_out[13]
*111 io_out[14]
*112 io_out[15]
*113 io_out[16]
*114 io_out[17]
*115 io_out[18]
*116 io_out[19]
*117 io_out[1]
*118 io_out[20]
*119 io_out[21]
*120 io_out[22]
*121 io_out[23]
*122 io_out[24]
*123 io_out[25]
*124 io_out[26]
*125 io_out[27]
*126 io_out[28]
*127 io_out[29]
*128 io_out[2]
*129 io_out[30]
*130 io_out[31]
*131 io_out[32]
*132 io_out[33]
*133 io_out[34]
*134 io_out[35]
*135 io_out[36]
*136 io_out[37]
*137 io_out[3]
*138 io_out[4]
*139 io_out[5]
*140 io_out[6]
*141 io_out[7]
*142 io_out[8]
*143 io_out[9]
*144 la_data_in[0]
*145 la_data_in[100]
*146 la_data_in[101]
*147 la_data_in[102]
*148 la_data_in[103]
*149 la_data_in[104]
*150 la_data_in[105]
*151 la_data_in[106]
*152 la_data_in[107]
*153 la_data_in[108]
*154 la_data_in[109]
*155 la_data_in[10]
*156 la_data_in[110]
*157 la_data_in[111]
*158 la_data_in[112]
*159 la_data_in[113]
*160 la_data_in[114]
*161 la_data_in[115]
*162 la_data_in[116]
*163 la_data_in[117]
*164 la_data_in[118]
*165 la_data_in[119]
*166 la_data_in[11]
*167 la_data_in[120]
*168 la_data_in[121]
*169 la_data_in[122]
*170 la_data_in[123]
*171 la_data_in[124]
*172 la_data_in[125]
*173 la_data_in[126]
*174 la_data_in[127]
*175 la_data_in[12]
*176 la_data_in[13]
*177 la_data_in[14]
*178 la_data_in[15]
*179 la_data_in[16]
*180 la_data_in[17]
*181 la_data_in[18]
*182 la_data_in[19]
*183 la_data_in[1]
*184 la_data_in[20]
*185 la_data_in[21]
*186 la_data_in[22]
*187 la_data_in[23]
*188 la_data_in[24]
*189 la_data_in[25]
*190 la_data_in[26]
*191 la_data_in[27]
*192 la_data_in[28]
*193 la_data_in[29]
*194 la_data_in[2]
*195 la_data_in[30]
*196 la_data_in[31]
*197 la_data_in[32]
*198 la_data_in[33]
*199 la_data_in[34]
*200 la_data_in[35]
*201 la_data_in[36]
*202 la_data_in[37]
*203 la_data_in[38]
*204 la_data_in[39]
*205 la_data_in[3]
*206 la_data_in[40]
*207 la_data_in[41]
*208 la_data_in[42]
*209 la_data_in[43]
*210 la_data_in[44]
*211 la_data_in[45]
*212 la_data_in[46]
*213 la_data_in[47]
*214 la_data_in[48]
*215 la_data_in[49]
*216 la_data_in[4]
*217 la_data_in[50]
*218 la_data_in[51]
*219 la_data_in[52]
*220 la_data_in[53]
*221 la_data_in[54]
*222 la_data_in[55]
*223 la_data_in[56]
*224 la_data_in[57]
*225 la_data_in[58]
*226 la_data_in[59]
*227 la_data_in[5]
*228 la_data_in[60]
*229 la_data_in[61]
*230 la_data_in[62]
*231 la_data_in[63]
*232 la_data_in[64]
*233 la_data_in[65]
*234 la_data_in[66]
*235 la_data_in[67]
*236 la_data_in[68]
*237 la_data_in[69]
*238 la_data_in[6]
*239 la_data_in[70]
*240 la_data_in[71]
*241 la_data_in[72]
*242 la_data_in[73]
*243 la_data_in[74]
*244 la_data_in[75]
*245 la_data_in[76]
*246 la_data_in[77]
*247 la_data_in[78]
*248 la_data_in[79]
*249 la_data_in[7]
*250 la_data_in[80]
*251 la_data_in[81]
*252 la_data_in[82]
*253 la_data_in[83]
*254 la_data_in[84]
*255 la_data_in[85]
*256 la_data_in[86]
*257 la_data_in[87]
*258 la_data_in[88]
*259 la_data_in[89]
*260 la_data_in[8]
*261 la_data_in[90]
*262 la_data_in[91]
*263 la_data_in[92]
*264 la_data_in[93]
*265 la_data_in[94]
*266 la_data_in[95]
*267 la_data_in[96]
*268 la_data_in[97]
*269 la_data_in[98]
*270 la_data_in[99]
*271 la_data_in[9]
*272 la_data_out[0]
*273 la_data_out[100]
*274 la_data_out[101]
*275 la_data_out[102]
*276 la_data_out[103]
*277 la_data_out[104]
*278 la_data_out[105]
*279 la_data_out[106]
*280 la_data_out[107]
*281 la_data_out[108]
*282 la_data_out[109]
*283 la_data_out[10]
*284 la_data_out[110]
*285 la_data_out[111]
*286 la_data_out[112]
*287 la_data_out[113]
*288 la_data_out[114]
*289 la_data_out[115]
*290 la_data_out[116]
*291 la_data_out[117]
*292 la_data_out[118]
*293 la_data_out[119]
*294 la_data_out[11]
*295 la_data_out[120]
*296 la_data_out[121]
*297 la_data_out[122]
*298 la_data_out[123]
*299 la_data_out[124]
*300 la_data_out[125]
*301 la_data_out[126]
*302 la_data_out[127]
*303 la_data_out[12]
*304 la_data_out[13]
*305 la_data_out[14]
*306 la_data_out[15]
*307 la_data_out[16]
*308 la_data_out[17]
*309 la_data_out[18]
*310 la_data_out[19]
*311 la_data_out[1]
*312 la_data_out[20]
*313 la_data_out[21]
*314 la_data_out[22]
*315 la_data_out[23]
*316 la_data_out[24]
*317 la_data_out[25]
*318 la_data_out[26]
*319 la_data_out[27]
*320 la_data_out[28]
*321 la_data_out[29]
*322 la_data_out[2]
*323 la_data_out[30]
*324 la_data_out[31]
*325 la_data_out[32]
*326 la_data_out[33]
*327 la_data_out[34]
*328 la_data_out[35]
*329 la_data_out[36]
*330 la_data_out[37]
*331 la_data_out[38]
*332 la_data_out[39]
*333 la_data_out[3]
*334 la_data_out[40]
*335 la_data_out[41]
*336 la_data_out[42]
*337 la_data_out[43]
*338 la_data_out[44]
*339 la_data_out[45]
*340 la_data_out[46]
*341 la_data_out[47]
*342 la_data_out[48]
*343 la_data_out[49]
*344 la_data_out[4]
*345 la_data_out[50]
*346 la_data_out[51]
*347 la_data_out[52]
*348 la_data_out[53]
*349 la_data_out[54]
*350 la_data_out[55]
*351 la_data_out[56]
*352 la_data_out[57]
*353 la_data_out[58]
*354 la_data_out[59]
*355 la_data_out[5]
*356 la_data_out[60]
*357 la_data_out[61]
*358 la_data_out[62]
*359 la_data_out[63]
*360 la_data_out[64]
*361 la_data_out[65]
*362 la_data_out[66]
*363 la_data_out[67]
*364 la_data_out[68]
*365 la_data_out[69]
*366 la_data_out[6]
*367 la_data_out[70]
*368 la_data_out[71]
*369 la_data_out[72]
*370 la_data_out[73]
*371 la_data_out[74]
*372 la_data_out[75]
*373 la_data_out[76]
*374 la_data_out[77]
*375 la_data_out[78]
*376 la_data_out[79]
*377 la_data_out[7]
*378 la_data_out[80]
*379 la_data_out[81]
*380 la_data_out[82]
*381 la_data_out[83]
*382 la_data_out[84]
*383 la_data_out[85]
*384 la_data_out[86]
*385 la_data_out[87]
*386 la_data_out[88]
*387 la_data_out[89]
*388 la_data_out[8]
*389 la_data_out[90]
*390 la_data_out[91]
*391 la_data_out[92]
*392 la_data_out[93]
*393 la_data_out[94]
*394 la_data_out[95]
*395 la_data_out[96]
*396 la_data_out[97]
*397 la_data_out[98]
*398 la_data_out[99]
*399 la_data_out[9]
*400 la_oenb[0]
*401 la_oenb[100]
*402 la_oenb[101]
*403 la_oenb[102]
*404 la_oenb[103]
*405 la_oenb[104]
*406 la_oenb[105]
*407 la_oenb[106]
*408 la_oenb[107]
*409 la_oenb[108]
*410 la_oenb[109]
*411 la_oenb[10]
*412 la_oenb[110]
*413 la_oenb[111]
*414 la_oenb[112]
*415 la_oenb[113]
*416 la_oenb[114]
*417 la_oenb[115]
*418 la_oenb[116]
*419 la_oenb[117]
*420 la_oenb[118]
*421 la_oenb[119]
*422 la_oenb[11]
*423 la_oenb[120]
*424 la_oenb[121]
*425 la_oenb[122]
*426 la_oenb[123]
*427 la_oenb[124]
*428 la_oenb[125]
*429 la_oenb[126]
*430 la_oenb[127]
*431 la_oenb[12]
*432 la_oenb[13]
*433 la_oenb[14]
*434 la_oenb[15]
*435 la_oenb[16]
*436 la_oenb[17]
*437 la_oenb[18]
*438 la_oenb[19]
*439 la_oenb[1]
*440 la_oenb[20]
*441 la_oenb[21]
*442 la_oenb[22]
*443 la_oenb[23]
*444 la_oenb[24]
*445 la_oenb[25]
*446 la_oenb[26]
*447 la_oenb[27]
*448 la_oenb[28]
*449 la_oenb[29]
*450 la_oenb[2]
*451 la_oenb[30]
*452 la_oenb[31]
*453 la_oenb[32]
*454 la_oenb[33]
*455 la_oenb[34]
*456 la_oenb[35]
*457 la_oenb[36]
*458 la_oenb[37]
*459 la_oenb[38]
*460 la_oenb[39]
*461 la_oenb[3]
*462 la_oenb[40]
*463 la_oenb[41]
*464 la_oenb[42]
*465 la_oenb[43]
*466 la_oenb[44]
*467 la_oenb[45]
*468 la_oenb[46]
*469 la_oenb[47]
*470 la_oenb[48]
*471 la_oenb[49]
*472 la_oenb[4]
*473 la_oenb[50]
*474 la_oenb[51]
*475 la_oenb[52]
*476 la_oenb[53]
*477 la_oenb[54]
*478 la_oenb[55]
*479 la_oenb[56]
*480 la_oenb[57]
*481 la_oenb[58]
*482 la_oenb[59]
*483 la_oenb[5]
*484 la_oenb[60]
*485 la_oenb[61]
*486 la_oenb[62]
*487 la_oenb[63]
*488 la_oenb[64]
*489 la_oenb[65]
*490 la_oenb[66]
*491 la_oenb[67]
*492 la_oenb[68]
*493 la_oenb[69]
*494 la_oenb[6]
*495 la_oenb[70]
*496 la_oenb[71]
*497 la_oenb[72]
*498 la_oenb[73]
*499 la_oenb[74]
*500 la_oenb[75]
*501 la_oenb[76]
*502 la_oenb[77]
*503 la_oenb[78]
*504 la_oenb[79]
*505 la_oenb[7]
*506 la_oenb[80]
*507 la_oenb[81]
*508 la_oenb[82]
*509 la_oenb[83]
*510 la_oenb[84]
*511 la_oenb[85]
*512 la_oenb[86]
*513 la_oenb[87]
*514 la_oenb[88]
*515 la_oenb[89]
*516 la_oenb[8]
*517 la_oenb[90]
*518 la_oenb[91]
*519 la_oenb[92]
*520 la_oenb[93]
*521 la_oenb[94]
*522 la_oenb[95]
*523 la_oenb[96]
*524 la_oenb[97]
*525 la_oenb[98]
*526 la_oenb[99]
*527 la_oenb[9]
*528 user_clock2
*529 user_irq[0]
*530 user_irq[1]
*531 user_irq[2]
*540 wb_clk_i
*541 wb_rst_i
*542 wbs_ack_o
*543 wbs_adr_i[0]
*544 wbs_adr_i[10]
*545 wbs_adr_i[11]
*546 wbs_adr_i[12]
*547 wbs_adr_i[13]
*548 wbs_adr_i[14]
*549 wbs_adr_i[15]
*550 wbs_adr_i[16]
*551 wbs_adr_i[17]
*552 wbs_adr_i[18]
*553 wbs_adr_i[19]
*554 wbs_adr_i[1]
*555 wbs_adr_i[20]
*556 wbs_adr_i[21]
*557 wbs_adr_i[22]
*558 wbs_adr_i[23]
*559 wbs_adr_i[24]
*560 wbs_adr_i[25]
*561 wbs_adr_i[26]
*562 wbs_adr_i[27]
*563 wbs_adr_i[28]
*564 wbs_adr_i[29]
*565 wbs_adr_i[2]
*566 wbs_adr_i[30]
*567 wbs_adr_i[31]
*568 wbs_adr_i[3]
*569 wbs_adr_i[4]
*570 wbs_adr_i[5]
*571 wbs_adr_i[6]
*572 wbs_adr_i[7]
*573 wbs_adr_i[8]
*574 wbs_adr_i[9]
*575 wbs_cyc_i
*576 wbs_dat_i[0]
*577 wbs_dat_i[10]
*578 wbs_dat_i[11]
*579 wbs_dat_i[12]
*580 wbs_dat_i[13]
*581 wbs_dat_i[14]
*582 wbs_dat_i[15]
*583 wbs_dat_i[16]
*584 wbs_dat_i[17]
*585 wbs_dat_i[18]
*586 wbs_dat_i[19]
*587 wbs_dat_i[1]
*588 wbs_dat_i[20]
*589 wbs_dat_i[21]
*590 wbs_dat_i[22]
*591 wbs_dat_i[23]
*592 wbs_dat_i[24]
*593 wbs_dat_i[25]
*594 wbs_dat_i[26]
*595 wbs_dat_i[27]
*596 wbs_dat_i[28]
*597 wbs_dat_i[29]
*598 wbs_dat_i[2]
*599 wbs_dat_i[30]
*600 wbs_dat_i[31]
*601 wbs_dat_i[3]
*602 wbs_dat_i[4]
*603 wbs_dat_i[5]
*604 wbs_dat_i[6]
*605 wbs_dat_i[7]
*606 wbs_dat_i[8]
*607 wbs_dat_i[9]
*608 wbs_dat_o[0]
*609 wbs_dat_o[10]
*610 wbs_dat_o[11]
*611 wbs_dat_o[12]
*612 wbs_dat_o[13]
*613 wbs_dat_o[14]
*614 wbs_dat_o[15]
*615 wbs_dat_o[16]
*616 wbs_dat_o[17]
*617 wbs_dat_o[18]
*618 wbs_dat_o[19]
*619 wbs_dat_o[1]
*620 wbs_dat_o[20]
*621 wbs_dat_o[21]
*622 wbs_dat_o[22]
*623 wbs_dat_o[23]
*624 wbs_dat_o[24]
*625 wbs_dat_o[25]
*626 wbs_dat_o[26]
*627 wbs_dat_o[27]
*628 wbs_dat_o[28]
*629 wbs_dat_o[29]
*630 wbs_dat_o[2]
*631 wbs_dat_o[30]
*632 wbs_dat_o[31]
*633 wbs_dat_o[3]
*634 wbs_dat_o[4]
*635 wbs_dat_o[5]
*636 wbs_dat_o[6]
*637 wbs_dat_o[7]
*638 wbs_dat_o[8]
*639 wbs_dat_o[9]
*640 wbs_sel_i[0]
*641 wbs_sel_i[1]
*642 wbs_sel_i[2]
*643 wbs_sel_i[3]
*644 wbs_stb_i
*645 wbs_we_i
*646 cache_PC\[0\]
*647 cache_PC\[10\]
*648 cache_PC\[11\]
*649 cache_PC\[12\]
*650 cache_PC\[13\]
*651 cache_PC\[14\]
*652 cache_PC\[15\]
*653 cache_PC\[16\]
*654 cache_PC\[17\]
*655 cache_PC\[18\]
*656 cache_PC\[19\]
*657 cache_PC\[1\]
*658 cache_PC\[20\]
*659 cache_PC\[21\]
*660 cache_PC\[22\]
*661 cache_PC\[23\]
*662 cache_PC\[24\]
*663 cache_PC\[25\]
*664 cache_PC\[26\]
*665 cache_PC\[27\]
*666 cache_PC\[2\]
*667 cache_PC\[3\]
*668 cache_PC\[4\]
*669 cache_PC\[5\]
*670 cache_PC\[6\]
*671 cache_PC\[7\]
*672 cache_PC\[8\]
*673 cache_PC\[9\]
*674 cache_entry\[0\]
*675 cache_entry\[100\]
*676 cache_entry\[101\]
*677 cache_entry\[102\]
*678 cache_entry\[103\]
*679 cache_entry\[104\]
*680 cache_entry\[105\]
*681 cache_entry\[106\]
*682 cache_entry\[107\]
*683 cache_entry\[108\]
*684 cache_entry\[109\]
*685 cache_entry\[10\]
*686 cache_entry\[110\]
*687 cache_entry\[111\]
*688 cache_entry\[112\]
*689 cache_entry\[113\]
*690 cache_entry\[114\]
*691 cache_entry\[115\]
*692 cache_entry\[116\]
*693 cache_entry\[117\]
*694 cache_entry\[118\]
*695 cache_entry\[119\]
*696 cache_entry\[11\]
*697 cache_entry\[120\]
*698 cache_entry\[121\]
*699 cache_entry\[122\]
*700 cache_entry\[123\]
*701 cache_entry\[124\]
*702 cache_entry\[125\]
*703 cache_entry\[126\]
*704 cache_entry\[127\]
*705 cache_entry\[12\]
*706 cache_entry\[13\]
*707 cache_entry\[14\]
*708 cache_entry\[15\]
*709 cache_entry\[16\]
*710 cache_entry\[17\]
*711 cache_entry\[18\]
*712 cache_entry\[19\]
*713 cache_entry\[1\]
*714 cache_entry\[20\]
*715 cache_entry\[21\]
*716 cache_entry\[22\]
*717 cache_entry\[23\]
*718 cache_entry\[24\]
*719 cache_entry\[25\]
*720 cache_entry\[26\]
*721 cache_entry\[27\]
*722 cache_entry\[28\]
*723 cache_entry\[29\]
*724 cache_entry\[2\]
*725 cache_entry\[30\]
*726 cache_entry\[31\]
*727 cache_entry\[32\]
*728 cache_entry\[33\]
*729 cache_entry\[34\]
*730 cache_entry\[35\]
*731 cache_entry\[36\]
*732 cache_entry\[37\]
*733 cache_entry\[38\]
*734 cache_entry\[39\]
*735 cache_entry\[3\]
*736 cache_entry\[40\]
*737 cache_entry\[41\]
*738 cache_entry\[42\]
*739 cache_entry\[43\]
*740 cache_entry\[44\]
*741 cache_entry\[45\]
*742 cache_entry\[46\]
*743 cache_entry\[47\]
*744 cache_entry\[48\]
*745 cache_entry\[49\]
*746 cache_entry\[4\]
*747 cache_entry\[50\]
*748 cache_entry\[51\]
*749 cache_entry\[52\]
*750 cache_entry\[53\]
*751 cache_entry\[54\]
*752 cache_entry\[55\]
*753 cache_entry\[56\]
*754 cache_entry\[57\]
*755 cache_entry\[58\]
*756 cache_entry\[59\]
*757 cache_entry\[5\]
*758 cache_entry\[60\]
*759 cache_entry\[61\]
*760 cache_entry\[62\]
*761 cache_entry\[63\]
*762 cache_entry\[64\]
*763 cache_entry\[65\]
*764 cache_entry\[66\]
*765 cache_entry\[67\]
*766 cache_entry\[68\]
*767 cache_entry\[69\]
*768 cache_entry\[6\]
*769 cache_entry\[70\]
*770 cache_entry\[71\]
*771 cache_entry\[72\]
*772 cache_entry\[73\]
*773 cache_entry\[74\]
*774 cache_entry\[75\]
*775 cache_entry\[76\]
*776 cache_entry\[77\]
*777 cache_entry\[78\]
*778 cache_entry\[79\]
*779 cache_entry\[7\]
*780 cache_entry\[80\]
*781 cache_entry\[81\]
*782 cache_entry\[82\]
*783 cache_entry\[83\]
*784 cache_entry\[84\]
*785 cache_entry\[85\]
*786 cache_entry\[86\]
*787 cache_entry\[87\]
*788 cache_entry\[88\]
*789 cache_entry\[89\]
*790 cache_entry\[8\]
*791 cache_entry\[90\]
*792 cache_entry\[91\]
*793 cache_entry\[92\]
*794 cache_entry\[93\]
*795 cache_entry\[94\]
*796 cache_entry\[95\]
*797 cache_entry\[96\]
*798 cache_entry\[97\]
*799 cache_entry\[98\]
*800 cache_entry\[99\]
*801 cache_entry\[9\]
*802 cache_entry_valid
*803 cache_hit
*804 cache_invalidate
*805 cache_new_entry\[0\]
*806 cache_new_entry\[100\]
*807 cache_new_entry\[101\]
*808 cache_new_entry\[102\]
*809 cache_new_entry\[103\]
*810 cache_new_entry\[104\]
*811 cache_new_entry\[105\]
*812 cache_new_entry\[106\]
*813 cache_new_entry\[107\]
*814 cache_new_entry\[108\]
*815 cache_new_entry\[109\]
*816 cache_new_entry\[10\]
*817 cache_new_entry\[110\]
*818 cache_new_entry\[111\]
*819 cache_new_entry\[112\]
*820 cache_new_entry\[113\]
*821 cache_new_entry\[114\]
*822 cache_new_entry\[115\]
*823 cache_new_entry\[116\]
*824 cache_new_entry\[117\]
*825 cache_new_entry\[118\]
*826 cache_new_entry\[119\]
*827 cache_new_entry\[11\]
*828 cache_new_entry\[120\]
*829 cache_new_entry\[121\]
*830 cache_new_entry\[122\]
*831 cache_new_entry\[123\]
*832 cache_new_entry\[124\]
*833 cache_new_entry\[125\]
*834 cache_new_entry\[126\]
*835 cache_new_entry\[127\]
*836 cache_new_entry\[12\]
*837 cache_new_entry\[13\]
*838 cache_new_entry\[14\]
*839 cache_new_entry\[15\]
*840 cache_new_entry\[16\]
*841 cache_new_entry\[17\]
*842 cache_new_entry\[18\]
*843 cache_new_entry\[19\]
*844 cache_new_entry\[1\]
*845 cache_new_entry\[20\]
*846 cache_new_entry\[21\]
*847 cache_new_entry\[22\]
*848 cache_new_entry\[23\]
*849 cache_new_entry\[24\]
*850 cache_new_entry\[25\]
*851 cache_new_entry\[26\]
*852 cache_new_entry\[27\]
*853 cache_new_entry\[28\]
*854 cache_new_entry\[29\]
*855 cache_new_entry\[2\]
*856 cache_new_entry\[30\]
*857 cache_new_entry\[31\]
*858 cache_new_entry\[32\]
*859 cache_new_entry\[33\]
*860 cache_new_entry\[34\]
*861 cache_new_entry\[35\]
*862 cache_new_entry\[36\]
*863 cache_new_entry\[37\]
*864 cache_new_entry\[38\]
*865 cache_new_entry\[39\]
*866 cache_new_entry\[3\]
*867 cache_new_entry\[40\]
*868 cache_new_entry\[41\]
*869 cache_new_entry\[42\]
*870 cache_new_entry\[43\]
*871 cache_new_entry\[44\]
*872 cache_new_entry\[45\]
*873 cache_new_entry\[46\]
*874 cache_new_entry\[47\]
*875 cache_new_entry\[48\]
*876 cache_new_entry\[49\]
*877 cache_new_entry\[4\]
*878 cache_new_entry\[50\]
*879 cache_new_entry\[51\]
*880 cache_new_entry\[52\]
*881 cache_new_entry\[53\]
*882 cache_new_entry\[54\]
*883 cache_new_entry\[55\]
*884 cache_new_entry\[56\]
*885 cache_new_entry\[57\]
*886 cache_new_entry\[58\]
*887 cache_new_entry\[59\]
*888 cache_new_entry\[5\]
*889 cache_new_entry\[60\]
*890 cache_new_entry\[61\]
*891 cache_new_entry\[62\]
*892 cache_new_entry\[63\]
*893 cache_new_entry\[64\]
*894 cache_new_entry\[65\]
*895 cache_new_entry\[66\]
*896 cache_new_entry\[67\]
*897 cache_new_entry\[68\]
*898 cache_new_entry\[69\]
*899 cache_new_entry\[6\]
*900 cache_new_entry\[70\]
*901 cache_new_entry\[71\]
*902 cache_new_entry\[72\]
*903 cache_new_entry\[73\]
*904 cache_new_entry\[74\]
*905 cache_new_entry\[75\]
*906 cache_new_entry\[76\]
*907 cache_new_entry\[77\]
*908 cache_new_entry\[78\]
*909 cache_new_entry\[79\]
*910 cache_new_entry\[7\]
*911 cache_new_entry\[80\]
*912 cache_new_entry\[81\]
*913 cache_new_entry\[82\]
*914 cache_new_entry\[83\]
*915 cache_new_entry\[84\]
*916 cache_new_entry\[85\]
*917 cache_new_entry\[86\]
*918 cache_new_entry\[87\]
*919 cache_new_entry\[88\]
*920 cache_new_entry\[89\]
*921 cache_new_entry\[8\]
*922 cache_new_entry\[90\]
*923 cache_new_entry\[91\]
*924 cache_new_entry\[92\]
*925 cache_new_entry\[93\]
*926 cache_new_entry\[94\]
*927 cache_new_entry\[95\]
*928 cache_new_entry\[96\]
*929 cache_new_entry\[97\]
*930 cache_new_entry\[98\]
*931 cache_new_entry\[99\]
*932 cache_new_entry\[9\]
*933 cache_rst
*934 curr_PC\[0\]
*935 curr_PC\[10\]
*936 curr_PC\[11\]
*937 curr_PC\[12\]
*938 curr_PC\[13\]
*939 curr_PC\[14\]
*940 curr_PC\[15\]
*941 curr_PC\[16\]
*942 curr_PC\[17\]
*943 curr_PC\[18\]
*944 curr_PC\[19\]
*945 curr_PC\[1\]
*946 curr_PC\[20\]
*947 curr_PC\[21\]
*948 curr_PC\[22\]
*949 curr_PC\[23\]
*950 curr_PC\[24\]
*951 curr_PC\[25\]
*952 curr_PC\[26\]
*953 curr_PC\[27\]
*954 curr_PC\[2\]
*955 curr_PC\[3\]
*956 curr_PC\[4\]
*957 curr_PC\[5\]
*958 curr_PC\[6\]
*959 curr_PC\[7\]
*960 curr_PC\[8\]
*961 curr_PC\[9\]
*962 custom_settings\[0\]
*963 custom_settings\[10\]
*964 custom_settings\[11\]
*965 custom_settings\[12\]
*966 custom_settings\[13\]
*967 custom_settings\[14\]
*968 custom_settings\[15\]
*969 custom_settings\[16\]
*970 custom_settings\[17\]
*971 custom_settings\[18\]
*972 custom_settings\[19\]
*973 custom_settings\[1\]
*974 custom_settings\[20\]
*975 custom_settings\[21\]
*976 custom_settings\[22\]
*977 custom_settings\[23\]
*978 custom_settings\[24\]
*979 custom_settings\[25\]
*980 custom_settings\[26\]
*981 custom_settings\[27\]
*982 custom_settings\[28\]
*983 custom_settings\[29\]
*984 custom_settings\[2\]
*985 custom_settings\[30\]
*986 custom_settings\[31\]
*987 custom_settings\[3\]
*988 custom_settings\[4\]
*989 custom_settings\[5\]
*990 custom_settings\[6\]
*991 custom_settings\[7\]
*992 custom_settings\[8\]
*993 custom_settings\[9\]
*994 dest_idx0\[0\]
*995 dest_idx0\[1\]
*996 dest_idx0\[2\]
*997 dest_idx0\[3\]
*998 dest_idx0\[4\]
*999 dest_idx1\[0\]
*1000 dest_idx1\[1\]
*1001 dest_idx1\[2\]
*1002 dest_idx1\[3\]
*1003 dest_idx1\[4\]
*1004 dest_idx2\[0\]
*1005 dest_idx2\[1\]
*1006 dest_idx2\[2\]
*1007 dest_idx2\[3\]
*1008 dest_idx2\[4\]
*1009 dest_mask0\[0\]
*1010 dest_mask0\[1\]
*1011 dest_mask1\[0\]
*1012 dest_mask1\[1\]
*1013 dest_mask2\[0\]
*1014 dest_mask2\[1\]
*1015 dest_pred0\[0\]
*1016 dest_pred0\[1\]
*1017 dest_pred0\[2\]
*1018 dest_pred1\[0\]
*1019 dest_pred1\[1\]
*1020 dest_pred1\[2\]
*1021 dest_pred2\[0\]
*1022 dest_pred2\[1\]
*1023 dest_pred2\[2\]
*1024 dest_pred_val0
*1025 dest_pred_val1
*1026 dest_pred_val2
*1027 dest_val0\[0\]
*1028 dest_val0\[10\]
*1029 dest_val0\[11\]
*1030 dest_val0\[12\]
*1031 dest_val0\[13\]
*1032 dest_val0\[14\]
*1033 dest_val0\[15\]
*1034 dest_val0\[16\]
*1035 dest_val0\[17\]
*1036 dest_val0\[18\]
*1037 dest_val0\[19\]
*1038 dest_val0\[1\]
*1039 dest_val0\[20\]
*1040 dest_val0\[21\]
*1041 dest_val0\[22\]
*1042 dest_val0\[23\]
*1043 dest_val0\[24\]
*1044 dest_val0\[25\]
*1045 dest_val0\[26\]
*1046 dest_val0\[27\]
*1047 dest_val0\[28\]
*1048 dest_val0\[29\]
*1049 dest_val0\[2\]
*1050 dest_val0\[30\]
*1051 dest_val0\[31\]
*1052 dest_val0\[3\]
*1053 dest_val0\[4\]
*1054 dest_val0\[5\]
*1055 dest_val0\[6\]
*1056 dest_val0\[7\]
*1057 dest_val0\[8\]
*1058 dest_val0\[9\]
*1059 dest_val1\[0\]
*1060 dest_val1\[10\]
*1061 dest_val1\[11\]
*1062 dest_val1\[12\]
*1063 dest_val1\[13\]
*1064 dest_val1\[14\]
*1065 dest_val1\[15\]
*1066 dest_val1\[16\]
*1067 dest_val1\[17\]
*1068 dest_val1\[18\]
*1069 dest_val1\[19\]
*1070 dest_val1\[1\]
*1071 dest_val1\[20\]
*1072 dest_val1\[21\]
*1073 dest_val1\[22\]
*1074 dest_val1\[23\]
*1075 dest_val1\[24\]
*1076 dest_val1\[25\]
*1077 dest_val1\[26\]
*1078 dest_val1\[27\]
*1079 dest_val1\[28\]
*1080 dest_val1\[29\]
*1081 dest_val1\[2\]
*1082 dest_val1\[30\]
*1083 dest_val1\[31\]
*1084 dest_val1\[3\]
*1085 dest_val1\[4\]
*1086 dest_val1\[5\]
*1087 dest_val1\[6\]
*1088 dest_val1\[7\]
*1089 dest_val1\[8\]
*1090 dest_val1\[9\]
*1091 dest_val2\[0\]
*1092 dest_val2\[10\]
*1093 dest_val2\[11\]
*1094 dest_val2\[12\]
*1095 dest_val2\[13\]
*1096 dest_val2\[14\]
*1097 dest_val2\[15\]
*1098 dest_val2\[16\]
*1099 dest_val2\[17\]
*1100 dest_val2\[18\]
*1101 dest_val2\[19\]
*1102 dest_val2\[1\]
*1103 dest_val2\[20\]
*1104 dest_val2\[21\]
*1105 dest_val2\[22\]
*1106 dest_val2\[23\]
*1107 dest_val2\[24\]
*1108 dest_val2\[25\]
*1109 dest_val2\[26\]
*1110 dest_val2\[27\]
*1111 dest_val2\[28\]
*1112 dest_val2\[29\]
*1113 dest_val2\[2\]
*1114 dest_val2\[30\]
*1115 dest_val2\[31\]
*1116 dest_val2\[3\]
*1117 dest_val2\[4\]
*1118 dest_val2\[5\]
*1119 dest_val2\[6\]
*1120 dest_val2\[7\]
*1121 dest_val2\[8\]
*1122 dest_val2\[9\]
*1123 eu0_busy
*1124 eu0_instruction\[0\]
*1125 eu0_instruction\[10\]
*1126 eu0_instruction\[11\]
*1127 eu0_instruction\[12\]
*1128 eu0_instruction\[13\]
*1129 eu0_instruction\[14\]
*1130 eu0_instruction\[15\]
*1131 eu0_instruction\[16\]
*1132 eu0_instruction\[17\]
*1133 eu0_instruction\[18\]
*1134 eu0_instruction\[19\]
*1135 eu0_instruction\[1\]
*1136 eu0_instruction\[20\]
*1137 eu0_instruction\[21\]
*1138 eu0_instruction\[22\]
*1139 eu0_instruction\[23\]
*1140 eu0_instruction\[24\]
*1141 eu0_instruction\[25\]
*1142 eu0_instruction\[26\]
*1143 eu0_instruction\[27\]
*1144 eu0_instruction\[28\]
*1145 eu0_instruction\[29\]
*1146 eu0_instruction\[2\]
*1147 eu0_instruction\[30\]
*1148 eu0_instruction\[31\]
*1149 eu0_instruction\[32\]
*1150 eu0_instruction\[33\]
*1151 eu0_instruction\[34\]
*1152 eu0_instruction\[35\]
*1153 eu0_instruction\[36\]
*1154 eu0_instruction\[37\]
*1155 eu0_instruction\[38\]
*1156 eu0_instruction\[39\]
*1157 eu0_instruction\[3\]
*1158 eu0_instruction\[40\]
*1159 eu0_instruction\[41\]
*1160 eu0_instruction\[4\]
*1161 eu0_instruction\[5\]
*1162 eu0_instruction\[6\]
*1163 eu0_instruction\[7\]
*1164 eu0_instruction\[8\]
*1165 eu0_instruction\[9\]
*1166 eu1_busy
*1167 eu1_instruction\[0\]
*1168 eu1_instruction\[10\]
*1169 eu1_instruction\[11\]
*1170 eu1_instruction\[12\]
*1171 eu1_instruction\[13\]
*1172 eu1_instruction\[14\]
*1173 eu1_instruction\[15\]
*1174 eu1_instruction\[16\]
*1175 eu1_instruction\[17\]
*1176 eu1_instruction\[18\]
*1177 eu1_instruction\[19\]
*1178 eu1_instruction\[1\]
*1179 eu1_instruction\[20\]
*1180 eu1_instruction\[21\]
*1181 eu1_instruction\[22\]
*1182 eu1_instruction\[23\]
*1183 eu1_instruction\[24\]
*1184 eu1_instruction\[25\]
*1185 eu1_instruction\[26\]
*1186 eu1_instruction\[27\]
*1187 eu1_instruction\[28\]
*1188 eu1_instruction\[29\]
*1189 eu1_instruction\[2\]
*1190 eu1_instruction\[30\]
*1191 eu1_instruction\[31\]
*1192 eu1_instruction\[32\]
*1193 eu1_instruction\[33\]
*1194 eu1_instruction\[34\]
*1195 eu1_instruction\[35\]
*1196 eu1_instruction\[36\]
*1197 eu1_instruction\[37\]
*1198 eu1_instruction\[38\]
*1199 eu1_instruction\[39\]
*1200 eu1_instruction\[3\]
*1201 eu1_instruction\[40\]
*1202 eu1_instruction\[41\]
*1203 eu1_instruction\[4\]
*1204 eu1_instruction\[5\]
*1205 eu1_instruction\[6\]
*1206 eu1_instruction\[7\]
*1207 eu1_instruction\[8\]
*1208 eu1_instruction\[9\]
*1209 eu2_busy
*1210 eu2_instruction\[0\]
*1211 eu2_instruction\[10\]
*1212 eu2_instruction\[11\]
*1213 eu2_instruction\[12\]
*1214 eu2_instruction\[13\]
*1215 eu2_instruction\[14\]
*1216 eu2_instruction\[15\]
*1217 eu2_instruction\[16\]
*1218 eu2_instruction\[17\]
*1219 eu2_instruction\[18\]
*1220 eu2_instruction\[19\]
*1221 eu2_instruction\[1\]
*1222 eu2_instruction\[20\]
*1223 eu2_instruction\[21\]
*1224 eu2_instruction\[22\]
*1225 eu2_instruction\[23\]
*1226 eu2_instruction\[24\]
*1227 eu2_instruction\[25\]
*1228 eu2_instruction\[26\]
*1229 eu2_instruction\[27\]
*1230 eu2_instruction\[28\]
*1231 eu2_instruction\[29\]
*1232 eu2_instruction\[2\]
*1233 eu2_instruction\[30\]
*1234 eu2_instruction\[31\]
*1235 eu2_instruction\[32\]
*1236 eu2_instruction\[33\]
*1237 eu2_instruction\[34\]
*1238 eu2_instruction\[35\]
*1239 eu2_instruction\[36\]
*1240 eu2_instruction\[37\]
*1241 eu2_instruction\[38\]
*1242 eu2_instruction\[39\]
*1243 eu2_instruction\[3\]
*1244 eu2_instruction\[40\]
*1245 eu2_instruction\[41\]
*1246 eu2_instruction\[4\]
*1247 eu2_instruction\[5\]
*1248 eu2_instruction\[6\]
*1249 eu2_instruction\[7\]
*1250 eu2_instruction\[8\]
*1251 eu2_instruction\[9\]
*1252 int_return0
*1253 int_return1
*1254 int_return2
*1255 io_oeb_6502
*1256 io_oeb_as1802
*1257 io_oeb_scrapcpu\[0\]
*1258 io_oeb_scrapcpu\[10\]
*1259 io_oeb_scrapcpu\[11\]
*1260 io_oeb_scrapcpu\[12\]
*1261 io_oeb_scrapcpu\[13\]
*1262 io_oeb_scrapcpu\[14\]
*1263 io_oeb_scrapcpu\[15\]
*1264 io_oeb_scrapcpu\[16\]
*1265 io_oeb_scrapcpu\[17\]
*1266 io_oeb_scrapcpu\[18\]
*1267 io_oeb_scrapcpu\[19\]
*1268 io_oeb_scrapcpu\[1\]
*1269 io_oeb_scrapcpu\[20\]
*1270 io_oeb_scrapcpu\[21\]
*1271 io_oeb_scrapcpu\[22\]
*1272 io_oeb_scrapcpu\[23\]
*1273 io_oeb_scrapcpu\[24\]
*1274 io_oeb_scrapcpu\[25\]
*1275 io_oeb_scrapcpu\[26\]
*1276 io_oeb_scrapcpu\[27\]
*1277 io_oeb_scrapcpu\[28\]
*1278 io_oeb_scrapcpu\[29\]
*1279 io_oeb_scrapcpu\[2\]
*1280 io_oeb_scrapcpu\[30\]
*1281 io_oeb_scrapcpu\[31\]
*1282 io_oeb_scrapcpu\[32\]
*1283 io_oeb_scrapcpu\[33\]
*1284 io_oeb_scrapcpu\[34\]
*1285 io_oeb_scrapcpu\[35\]
*1286 io_oeb_scrapcpu\[3\]
*1287 io_oeb_scrapcpu\[4\]
*1288 io_oeb_scrapcpu\[5\]
*1289 io_oeb_scrapcpu\[6\]
*1290 io_oeb_scrapcpu\[7\]
*1291 io_oeb_scrapcpu\[8\]
*1292 io_oeb_scrapcpu\[9\]
*1293 io_oeb_vliw\[0\]
*1294 io_oeb_vliw\[10\]
*1295 io_oeb_vliw\[11\]
*1296 io_oeb_vliw\[12\]
*1297 io_oeb_vliw\[13\]
*1298 io_oeb_vliw\[14\]
*1299 io_oeb_vliw\[15\]
*1300 io_oeb_vliw\[16\]
*1301 io_oeb_vliw\[17\]
*1302 io_oeb_vliw\[18\]
*1303 io_oeb_vliw\[19\]
*1304 io_oeb_vliw\[1\]
*1305 io_oeb_vliw\[20\]
*1306 io_oeb_vliw\[21\]
*1307 io_oeb_vliw\[22\]
*1308 io_oeb_vliw\[23\]
*1309 io_oeb_vliw\[24\]
*1310 io_oeb_vliw\[25\]
*1311 io_oeb_vliw\[26\]
*1312 io_oeb_vliw\[27\]
*1313 io_oeb_vliw\[28\]
*1314 io_oeb_vliw\[29\]
*1315 io_oeb_vliw\[2\]
*1316 io_oeb_vliw\[30\]
*1317 io_oeb_vliw\[31\]
*1318 io_oeb_vliw\[32\]
*1319 io_oeb_vliw\[33\]
*1320 io_oeb_vliw\[34\]
*1321 io_oeb_vliw\[35\]
*1322 io_oeb_vliw\[3\]
*1323 io_oeb_vliw\[4\]
*1324 io_oeb_vliw\[5\]
*1325 io_oeb_vliw\[6\]
*1326 io_oeb_vliw\[7\]
*1327 io_oeb_vliw\[8\]
*1328 io_oeb_vliw\[9\]
*1329 io_oeb_z80\[0\]
*1330 io_oeb_z80\[10\]
*1331 io_oeb_z80\[11\]
*1332 io_oeb_z80\[12\]
*1333 io_oeb_z80\[13\]
*1334 io_oeb_z80\[14\]
*1335 io_oeb_z80\[15\]
*1336 io_oeb_z80\[16\]
*1337 io_oeb_z80\[17\]
*1338 io_oeb_z80\[18\]
*1339 io_oeb_z80\[19\]
*1340 io_oeb_z80\[1\]
*1341 io_oeb_z80\[20\]
*1342 io_oeb_z80\[21\]
*1343 io_oeb_z80\[22\]
*1344 io_oeb_z80\[23\]
*1345 io_oeb_z80\[24\]
*1346 io_oeb_z80\[25\]
*1347 io_oeb_z80\[26\]
*1348 io_oeb_z80\[27\]
*1349 io_oeb_z80\[28\]
*1350 io_oeb_z80\[29\]
*1351 io_oeb_z80\[2\]
*1352 io_oeb_z80\[30\]
*1353 io_oeb_z80\[31\]
*1354 io_oeb_z80\[32\]
*1355 io_oeb_z80\[33\]
*1356 io_oeb_z80\[34\]
*1357 io_oeb_z80\[35\]
*1358 io_oeb_z80\[3\]
*1359 io_oeb_z80\[4\]
*1360 io_oeb_z80\[5\]
*1361 io_oeb_z80\[6\]
*1362 io_oeb_z80\[7\]
*1363 io_oeb_z80\[8\]
*1364 io_oeb_z80\[9\]
*1365 io_out_6502\[0\]
*1366 io_out_6502\[10\]
*1367 io_out_6502\[11\]
*1368 io_out_6502\[12\]
*1369 io_out_6502\[13\]
*1370 io_out_6502\[14\]
*1371 io_out_6502\[15\]
*1372 io_out_6502\[16\]
*1373 io_out_6502\[17\]
*1374 io_out_6502\[18\]
*1375 io_out_6502\[19\]
*1376 io_out_6502\[1\]
*1377 io_out_6502\[20\]
*1378 io_out_6502\[21\]
*1379 io_out_6502\[22\]
*1380 io_out_6502\[23\]
*1381 io_out_6502\[24\]
*1382 io_out_6502\[25\]
*1383 io_out_6502\[26\]
*1384 io_out_6502\[27\]